/*---------------------------------------------------------------------------*\
| =========                 |                                                 |
| \\      /  F ield         | OpenFOAM: The Open Source CFD Toolbox           |
|  \\    /   O peration     | Version:  2.2.2                                 |
|   \\  /    A nd           | Web:      www.OpenFOAM.org                      |
|    \\/     M anipulation  |                                                 |
\*---------------------------------------------------------------------------*/
Build  : 2.2.2-9240f8b967db
Exec   : matricoFoam
Date   : Oct 15 2014
Time   : 11:19:26
Host   : "debian-toshiba"
PID    : 8881
Case   : /home/jenek/matricoFoam/case
nProcs : 1
sigFpe : Enabling floating point exception trapping (FOAM_SIGFPE).
fileModificationChecking : Monitoring run-time modified files using timeStampMaster
allowSystemOperations : Disallowing user-supplied system call operations

// * * * * * * * * * * * * * * * * * * * * * * * * * * * * * * * * * * * * * //
Create time

Create mesh for time = 0

Reading transportProperties

Reading field p

Reading field U

Reading/calculating face flux field phi


Starting time loop

Time = 0

Courant Number mean: 0 max: 0
DILUPBiCG:  Solving for Ux, Initial residual = 1, Final residual = 4.27313e-06, No Iterations 6
DILUPBiCG:  Solving for Uy, Initial residual = 0, Final residual = 0, No Iterations 0
=== A(i,j) ===

-0.000131023 2.98709e-07 0 1.63784e-06 0 0 0 0 0 0 0 0 0 0 0 0 0 0 0 0 0 6.35748e-05 0 0 0 0 0 0 0 0 0 0 0 0 0 0 0 0 0 0 0 0 0 0 0 0 0 0 0 0 0 0 0 0 0 0 0 0 0 0 0 0 0 0 0 0 0 0 0 0 0 0 0 0 0 0 0 0 0 0 0 0 0 0 0 0 0 0 0 0 0 0 0 0 0 0 0 0 0 0 0 0 0 0 0 

2.98709e-07 -6.59825e-05 2.98709e-07 0 1.64303e-06 0 0 0 0 0 0 0 0 0 0 0 0 0 0 0 0 0 6.37421e-05 0 0 0 0 0 0 0 0 0 0 0 0 0 0 0 0 0 0 0 0 0 0 0 0 0 0 0 0 0 0 0 0 0 0 0 0 0 0 0 0 0 0 0 0 0 0 0 0 0 0 0 0 0 0 0 0 0 0 0 0 0 0 0 0 0 0 0 0 0 0 0 0 0 0 0 0 0 0 0 0 0 0 

0 2.98709e-07 -6.55113e-05 0 0 1.63784e-06 0 0 0 0 0 0 0 0 0 0 0 0 0 0 0 0 0 6.35748e-05 0 0 0 0 0 0 0 0 0 0 0 0 0 0 0 0 0 0 0 0 0 0 0 0 0 0 0 0 0 0 0 0 0 0 0 0 0 0 0 0 0 0 0 0 0 0 0 0 0 0 0 0 0 0 0 0 0 0 0 0 0 0 0 0 0 0 0 0 0 0 0 0 0 0 0 0 0 0 0 0 0 

1.63784e-06 0 0 -6.80908e-05 3.03898e-07 0 1.65192e-06 0 0 0 0 0 0 0 0 0 0 0 0 0 0 0 0 0 6.44971e-05 0 0 0 0 0 0 0 0 0 0 0 0 0 0 0 0 0 0 0 0 0 0 0 0 0 0 0 0 0 0 0 0 0 0 0 0 0 0 0 0 0 0 0 0 0 0 0 0 0 0 0 0 0 0 0 0 0 0 0 0 0 0 0 0 0 0 0 0 0 0 0 0 0 0 0 0 0 0 0 0 

0 1.64303e-06 0 3.03898e-07 -6.85777e-05 3.03898e-07 0 1.6572e-06 0 0 0 0 0 0 0 0 0 0 0 0 0 0 0 0 0 6.46696e-05 0 0 0 0 0 0 0 0 0 0 0 0 0 0 0 0 0 0 0 0 0 0 0 0 0 0 0 0 0 0 0 0 0 0 0 0 0 0 0 0 0 0 0 0 0 0 0 0 0 0 0 0 0 0 0 0 0 0 0 0 0 0 0 0 0 0 0 0 0 0 0 0 0 0 0 0 0 0 0 

0 0 1.63784e-06 0 3.03898e-07 -6.80908e-05 0 0 1.65192e-06 0 0 0 0 0 0 0 0 0 0 0 0 0 0 0 0 0 6.44971e-05 0 0 0 0 0 0 0 0 0 0 0 0 0 0 0 0 0 0 0 0 0 0 0 0 0 0 0 0 0 0 0 0 0 0 0 0 0 0 0 0 0 0 0 0 0 0 0 0 0 0 0 0 0 0 0 0 0 0 0 0 0 0 0 0 0 0 0 0 0 0 0 0 0 0 0 0 0 0 

0 0 0 1.65192e-06 0 0 -6.81048e-05 3.03898e-07 0 1.65192e-06 0 0 0 0 0 0 0 0 0 0 0 0 0 0 0 0 0 6.44971e-05 0 0 0 0 0 0 0 0 0 0 0 0 0 0 0 0 0 0 0 0 0 0 0 0 0 0 0 0 0 0 0 0 0 0 0 0 0 0 0 0 0 0 0 0 0 0 0 0 0 0 0 0 0 0 0 0 0 0 0 0 0 0 0 0 0 0 0 0 0 0 0 0 0 0 0 0 0 

0 0 0 0 1.6572e-06 0 3.03898e-07 -6.85918e-05 3.03898e-07 0 1.6572e-06 0 0 0 0 0 0 0 0 0 0 0 0 0 0 0 0 0 6.46696e-05 0 0 0 0 0 0 0 0 0 0 0 0 0 0 0 0 0 0 0 0 0 0 0 0 0 0 0 0 0 0 0 0 0 0 0 0 0 0 0 0 0 0 0 0 0 0 0 0 0 0 0 0 0 0 0 0 0 0 0 0 0 0 0 0 0 0 0 0 0 0 0 0 0 0 0 0 

0 0 0 0 0 1.65192e-06 0 3.03898e-07 -6.81048e-05 0 0 1.65192e-06 0 0 0 0 0 0 0 0 0 0 0 0 0 0 0 0 0 6.44971e-05 0 0 0 0 0 0 0 0 0 0 0 0 0 0 0 0 0 0 0 0 0 0 0 0 0 0 0 0 0 0 0 0 0 0 0 0 0 0 0 0 0 0 0 0 0 0 0 0 0 0 0 0 0 0 0 0 0 0 0 0 0 0 0 0 0 0 0 0 0 0 0 0 0 0 0 

0 0 0 0 0 0 1.65192e-06 0 0 -6.81048e-05 3.03898e-07 0 1.65192e-06 0 0 0 0 0 0 0 0 0 0 0 0 0 0 0 0 0 6.44971e-05 0 0 0 0 0 0 0 0 0 0 0 0 0 0 0 0 0 0 0 0 0 0 0 0 0 0 0 0 0 0 0 0 0 0 0 0 0 0 0 0 0 0 0 0 0 0 0 0 0 0 0 0 0 0 0 0 0 0 0 0 0 0 0 0 0 0 0 0 0 0 0 0 0 0 

0 0 0 0 0 0 0 1.6572e-06 0 3.03898e-07 -6.85918e-05 3.03898e-07 0 1.6572e-06 0 0 0 0 0 0 0 0 0 0 0 0 0 0 0 0 0 6.46696e-05 0 0 0 0 0 0 0 0 0 0 0 0 0 0 0 0 0 0 0 0 0 0 0 0 0 0 0 0 0 0 0 0 0 0 0 0 0 0 0 0 0 0 0 0 0 0 0 0 0 0 0 0 0 0 0 0 0 0 0 0 0 0 0 0 0 0 0 0 0 0 0 0 0 

0 0 0 0 0 0 0 0 1.65192e-06 0 3.03898e-07 -6.81048e-05 0 0 1.65192e-06 0 0 0 0 0 0 0 0 0 0 0 0 0 0 0 0 0 6.44971e-05 0 0 0 0 0 0 0 0 0 0 0 0 0 0 0 0 0 0 0 0 0 0 0 0 0 0 0 0 0 0 0 0 0 0 0 0 0 0 0 0 0 0 0 0 0 0 0 0 0 0 0 0 0 0 0 0 0 0 0 0 0 0 0 0 0 0 0 0 0 0 0 0 

0 0 0 0 0 0 0 0 0 1.65192e-06 0 0 -6.81048e-05 3.03898e-07 0 1.65192e-06 0 0 0 0 0 0 0 0 0 0 0 0 0 0 0 0 0 6.44971e-05 0 0 0 0 0 0 0 0 0 0 0 0 0 0 0 0 0 0 0 0 0 0 0 0 0 0 0 0 0 0 0 0 0 0 0 0 0 0 0 0 0 0 0 0 0 0 0 0 0 0 0 0 0 0 0 0 0 0 0 0 0 0 0 0 0 0 0 0 0 0 0 

0 0 0 0 0 0 0 0 0 0 1.6572e-06 0 3.03898e-07 -6.85918e-05 3.03898e-07 0 1.6572e-06 0 0 0 0 0 0 0 0 0 0 0 0 0 0 0 0 0 6.46696e-05 0 0 0 0 0 0 0 0 0 0 0 0 0 0 0 0 0 0 0 0 0 0 0 0 0 0 0 0 0 0 0 0 0 0 0 0 0 0 0 0 0 0 0 0 0 0 0 0 0 0 0 0 0 0 0 0 0 0 0 0 0 0 0 0 0 0 0 0 0 0 

0 0 0 0 0 0 0 0 0 0 0 1.65192e-06 0 3.03898e-07 -6.81048e-05 0 0 1.65192e-06 0 0 0 0 0 0 0 0 0 0 0 0 0 0 0 0 0 6.44971e-05 0 0 0 0 0 0 0 0 0 0 0 0 0 0 0 0 0 0 0 0 0 0 0 0 0 0 0 0 0 0 0 0 0 0 0 0 0 0 0 0 0 0 0 0 0 0 0 0 0 0 0 0 0 0 0 0 0 0 0 0 0 0 0 0 0 0 0 0 0 

0 0 0 0 0 0 0 0 0 0 0 0 1.65192e-06 0 0 -6.80908e-05 3.03898e-07 0 1.63784e-06 0 0 0 0 0 0 0 0 0 0 0 0 0 0 0 0 0 6.44971e-05 0 0 0 0 0 0 0 0 0 0 0 0 0 0 0 0 0 0 0 0 0 0 0 0 0 0 0 0 0 0 0 0 0 0 0 0 0 0 0 0 0 0 0 0 0 0 0 0 0 0 0 0 0 0 0 0 0 0 0 0 0 0 0 0 0 0 0 0 

0 0 0 0 0 0 0 0 0 0 0 0 0 1.6572e-06 0 3.03898e-07 -6.85777e-05 3.03898e-07 0 1.64303e-06 0 0 0 0 0 0 0 0 0 0 0 0 0 0 0 0 0 6.46696e-05 0 0 0 0 0 0 0 0 0 0 0 0 0 0 0 0 0 0 0 0 0 0 0 0 0 0 0 0 0 0 0 0 0 0 0 0 0 0 0 0 0 0 0 0 0 0 0 0 0 0 0 0 0 0 0 0 0 0 0 0 0 0 0 0 0 0 0 

0 0 0 0 0 0 0 0 0 0 0 0 0 0 1.65192e-06 0 3.03898e-07 -6.80908e-05 0 0 1.63784e-06 0 0 0 0 0 0 0 0 0 0 0 0 0 0 0 0 0 6.44971e-05 0 0 0 0 0 0 0 0 0 0 0 0 0 0 0 0 0 0 0 0 0 0 0 0 0 0 0 0 0 0 0 0 0 0 0 0 0 0 0 0 0 0 0 0 0 0 0 0 0 0 0 0 0 0 0 0 0 0 0 0 0 0 0 0 0 0 

0 0 0 0 0 0 0 0 0 0 0 0 0 0 0 1.63784e-06 0 0 -6.55113e-05 2.98709e-07 0 0 0 0 0 0 0 0 0 0 0 0 0 0 0 0 0 0 0 6.35748e-05 0 0 0 0 0 0 0 0 0 0 0 0 0 0 0 0 0 0 0 0 0 0 0 0 0 0 0 0 0 0 0 0 0 0 0 0 0 0 0 0 0 0 0 0 0 0 0 0 0 0 0 0 0 0 0 0 0 0 0 0 0 0 0 0 0 

0 0 0 0 0 0 0 0 0 0 0 0 0 0 0 0 1.64303e-06 0 2.98709e-07 -6.59825e-05 2.98709e-07 0 0 0 0 0 0 0 0 0 0 0 0 0 0 0 0 0 0 0 6.37421e-05 0 0 0 0 0 0 0 0 0 0 0 0 0 0 0 0 0 0 0 0 0 0 0 0 0 0 0 0 0 0 0 0 0 0 0 0 0 0 0 0 0 0 0 0 0 0 0 0 0 0 0 0 0 0 0 0 0 0 0 0 0 0 0 0 

0 0 0 0 0 0 0 0 0 0 0 0 0 0 0 0 0 1.63784e-06 0 2.98709e-07 -6.55113e-05 0 0 0 0 0 0 0 0 0 0 0 0 0 0 0 0 0 0 0 0 6.35748e-05 0 0 0 0 0 0 0 0 0 0 0 0 0 0 0 0 0 0 0 0 0 0 0 0 0 0 0 0 0 0 0 0 0 0 0 0 0 0 0 0 0 0 0 0 0 0 0 0 0 0 0 0 0 0 0 0 0 0 0 0 0 0 0 

6.35748e-05 0 0 0 0 0 0 0 0 0 0 0 0 0 0 0 0 0 0 0 0 -0.000108912 1.59632e-07 0 8.72374e-07 0 0 0 0 0 0 0 0 0 0 0 0 0 0 0 0 0 4.4305e-05 0 0 0 0 0 0 0 0 0 0 0 0 0 0 0 0 0 0 0 0 0 0 0 0 0 0 0 0 0 0 0 0 0 0 0 0 0 0 0 0 0 0 0 0 0 0 0 0 0 0 0 0 0 0 0 0 0 0 0 0 0 0 

0 6.37421e-05 0 0 0 0 0 0 0 0 0 0 0 0 0 0 0 0 0 0 0 1.59632e-07 -0.000109315 1.59632e-07 0 8.73844e-07 0 0 0 0 0 0 0 0 0 0 0 0 0 0 0 0 0 4.43794e-05 0 0 0 0 0 0 0 0 0 0 0 0 0 0 0 0 0 0 0 0 0 0 0 0 0 0 0 0 0 0 0 0 0 0 0 0 0 0 0 0 0 0 0 0 0 0 0 0 0 0 0 0 0 0 0 0 0 0 0 0 0 

0 0 6.35748e-05 0 0 0 0 0 0 0 0 0 0 0 0 0 0 0 0 0 0 0 1.59632e-07 -0.000108912 0 0 8.72374e-07 0 0 0 0 0 0 0 0 0 0 0 0 0 0 0 0 0 4.4305e-05 0 0 0 0 0 0 0 0 0 0 0 0 0 0 0 0 0 0 0 0 0 0 0 0 0 0 0 0 0 0 0 0 0 0 0 0 0 0 0 0 0 0 0 0 0 0 0 0 0 0 0 0 0 0 0 0 0 0 0 0 

0 0 0 6.44971e-05 0 0 0 0 0 0 0 0 0 0 0 0 0 0 0 0 0 8.72374e-07 0 0 -0.00011112 1.61102e-07 0 8.76369e-07 0 0 0 0 0 0 0 0 0 0 0 0 0 0 0 0 0 4.47127e-05 0 0 0 0 0 0 0 0 0 0 0 0 0 0 0 0 0 0 0 0 0 0 0 0 0 0 0 0 0 0 0 0 0 0 0 0 0 0 0 0 0 0 0 0 0 0 0 0 0 0 0 0 0 0 0 0 0 0 0 

0 0 0 0 6.46696e-05 0 0 0 0 0 0 0 0 0 0 0 0 0 0 0 0 0 8.73844e-07 0 1.61102e-07 -0.000111532 1.61102e-07 0 8.77853e-07 0 0 0 0 0 0 0 0 0 0 0 0 0 0 0 0 0 4.47884e-05 0 0 0 0 0 0 0 0 0 0 0 0 0 0 0 0 0 0 0 0 0 0 0 0 0 0 0 0 0 0 0 0 0 0 0 0 0 0 0 0 0 0 0 0 0 0 0 0 0 0 0 0 0 0 0 0 0 0 

0 0 0 0 0 6.44971e-05 0 0 0 0 0 0 0 0 0 0 0 0 0 0 0 0 0 8.72374e-07 0 1.61102e-07 -0.00011112 0 0 8.76369e-07 0 0 0 0 0 0 0 0 0 0 0 0 0 0 0 0 0 4.47127e-05 0 0 0 0 0 0 0 0 0 0 0 0 0 0 0 0 0 0 0 0 0 0 0 0 0 0 0 0 0 0 0 0 0 0 0 0 0 0 0 0 0 0 0 0 0 0 0 0 0 0 0 0 0 0 0 0 0 

0 0 0 0 0 0 6.44971e-05 0 0 0 0 0 0 0 0 0 0 0 0 0 0 0 0 0 8.76369e-07 0 0 -0.000111124 1.61102e-07 0 8.76369e-07 0 0 0 0 0 0 0 0 0 0 0 0 0 0 0 0 0 4.47127e-05 0 0 0 0 0 0 0 0 0 0 0 0 0 0 0 0 0 0 0 0 0 0 0 0 0 0 0 0 0 0 0 0 0 0 0 0 0 0 0 0 0 0 0 0 0 0 0 0 0 0 0 0 0 0 0 0 

0 0 0 0 0 0 0 6.46696e-05 0 0 0 0 0 0 0 0 0 0 0 0 0 0 0 0 0 8.77853e-07 0 1.61102e-07 -0.000111536 1.61102e-07 0 8.77853e-07 0 0 0 0 0 0 0 0 0 0 0 0 0 0 0 0 0 4.47884e-05 0 0 0 0 0 0 0 0 0 0 0 0 0 0 0 0 0 0 0 0 0 0 0 0 0 0 0 0 0 0 0 0 0 0 0 0 0 0 0 0 0 0 0 0 0 0 0 0 0 0 0 0 0 0 0 

0 0 0 0 0 0 0 0 6.44971e-05 0 0 0 0 0 0 0 0 0 0 0 0 0 0 0 0 0 8.76369e-07 0 1.61102e-07 -0.000111124 0 0 8.76369e-07 0 0 0 0 0 0 0 0 0 0 0 0 0 0 0 0 0 4.47127e-05 0 0 0 0 0 0 0 0 0 0 0 0 0 0 0 0 0 0 0 0 0 0 0 0 0 0 0 0 0 0 0 0 0 0 0 0 0 0 0 0 0 0 0 0 0 0 0 0 0 0 0 0 0 0 

0 0 0 0 0 0 0 0 0 6.44971e-05 0 0 0 0 0 0 0 0 0 0 0 0 0 0 0 0 0 8.76369e-07 0 0 -0.000111124 1.61102e-07 0 8.76369e-07 0 0 0 0 0 0 0 0 0 0 0 0 0 0 0 0 0 4.47127e-05 0 0 0 0 0 0 0 0 0 0 0 0 0 0 0 0 0 0 0 0 0 0 0 0 0 0 0 0 0 0 0 0 0 0 0 0 0 0 0 0 0 0 0 0 0 0 0 0 0 0 0 0 0 

0 0 0 0 0 0 0 0 0 0 6.46696e-05 0 0 0 0 0 0 0 0 0 0 0 0 0 0 0 0 0 8.77853e-07 0 1.61102e-07 -0.000111536 1.61102e-07 0 8.77853e-07 0 0 0 0 0 0 0 0 0 0 0 0 0 0 0 0 0 4.47884e-05 0 0 0 0 0 0 0 0 0 0 0 0 0 0 0 0 0 0 0 0 0 0 0 0 0 0 0 0 0 0 0 0 0 0 0 0 0 0 0 0 0 0 0 0 0 0 0 0 0 0 0 0 

0 0 0 0 0 0 0 0 0 0 0 6.44971e-05 0 0 0 0 0 0 0 0 0 0 0 0 0 0 0 0 0 8.76369e-07 0 1.61102e-07 -0.000111124 0 0 8.76369e-07 0 0 0 0 0 0 0 0 0 0 0 0 0 0 0 0 0 4.47127e-05 0 0 0 0 0 0 0 0 0 0 0 0 0 0 0 0 0 0 0 0 0 0 0 0 0 0 0 0 0 0 0 0 0 0 0 0 0 0 0 0 0 0 0 0 0 0 0 0 0 0 0 

0 0 0 0 0 0 0 0 0 0 0 0 6.44971e-05 0 0 0 0 0 0 0 0 0 0 0 0 0 0 0 0 0 8.76369e-07 0 0 -0.000111124 1.61102e-07 0 8.76369e-07 0 0 0 0 0 0 0 0 0 0 0 0 0 0 0 0 0 4.47127e-05 0 0 0 0 0 0 0 0 0 0 0 0 0 0 0 0 0 0 0 0 0 0 0 0 0 0 0 0 0 0 0 0 0 0 0 0 0 0 0 0 0 0 0 0 0 0 0 0 0 0 

0 0 0 0 0 0 0 0 0 0 0 0 0 6.46696e-05 0 0 0 0 0 0 0 0 0 0 0 0 0 0 0 0 0 8.77853e-07 0 1.61102e-07 -0.000111536 1.61102e-07 0 8.77853e-07 0 0 0 0 0 0 0 0 0 0 0 0 0 0 0 0 0 4.47884e-05 0 0 0 0 0 0 0 0 0 0 0 0 0 0 0 0 0 0 0 0 0 0 0 0 0 0 0 0 0 0 0 0 0 0 0 0 0 0 0 0 0 0 0 0 0 0 0 0 0 

0 0 0 0 0 0 0 0 0 0 0 0 0 0 6.44971e-05 0 0 0 0 0 0 0 0 0 0 0 0 0 0 0 0 0 8.76369e-07 0 1.61102e-07 -0.000111124 0 0 8.76369e-07 0 0 0 0 0 0 0 0 0 0 0 0 0 0 0 0 0 4.47127e-05 0 0 0 0 0 0 0 0 0 0 0 0 0 0 0 0 0 0 0 0 0 0 0 0 0 0 0 0 0 0 0 0 0 0 0 0 0 0 0 0 0 0 0 0 0 0 0 0 

0 0 0 0 0 0 0 0 0 0 0 0 0 0 0 6.44971e-05 0 0 0 0 0 0 0 0 0 0 0 0 0 0 0 0 0 8.76369e-07 0 0 -0.00011112 1.61102e-07 0 8.72374e-07 0 0 0 0 0 0 0 0 0 0 0 0 0 0 0 0 0 4.47127e-05 0 0 0 0 0 0 0 0 0 0 0 0 0 0 0 0 0 0 0 0 0 0 0 0 0 0 0 0 0 0 0 0 0 0 0 0 0 0 0 0 0 0 0 0 0 0 0 

0 0 0 0 0 0 0 0 0 0 0 0 0 0 0 0 6.46696e-05 0 0 0 0 0 0 0 0 0 0 0 0 0 0 0 0 0 8.77853e-07 0 1.61102e-07 -0.000111532 1.61102e-07 0 8.73844e-07 0 0 0 0 0 0 0 0 0 0 0 0 0 0 0 0 0 4.47884e-05 0 0 0 0 0 0 0 0 0 0 0 0 0 0 0 0 0 0 0 0 0 0 0 0 0 0 0 0 0 0 0 0 0 0 0 0 0 0 0 0 0 0 0 0 0 0 

0 0 0 0 0 0 0 0 0 0 0 0 0 0 0 0 0 6.44971e-05 0 0 0 0 0 0 0 0 0 0 0 0 0 0 0 0 0 8.76369e-07 0 1.61102e-07 -0.00011112 0 0 8.72374e-07 0 0 0 0 0 0 0 0 0 0 0 0 0 0 0 0 0 4.47127e-05 0 0 0 0 0 0 0 0 0 0 0 0 0 0 0 0 0 0 0 0 0 0 0 0 0 0 0 0 0 0 0 0 0 0 0 0 0 0 0 0 0 0 0 0 0 

0 0 0 0 0 0 0 0 0 0 0 0 0 0 0 0 0 0 6.35748e-05 0 0 0 0 0 0 0 0 0 0 0 0 0 0 0 0 0 8.72374e-07 0 0 -0.000108912 1.59632e-07 0 0 0 0 0 0 0 0 0 0 0 0 0 0 0 0 0 0 0 4.4305e-05 0 0 0 0 0 0 0 0 0 0 0 0 0 0 0 0 0 0 0 0 0 0 0 0 0 0 0 0 0 0 0 0 0 0 0 0 0 0 0 0 0 0 0 0 

0 0 0 0 0 0 0 0 0 0 0 0 0 0 0 0 0 0 0 6.37421e-05 0 0 0 0 0 0 0 0 0 0 0 0 0 0 0 0 0 8.73844e-07 0 1.59632e-07 -0.000109315 1.59632e-07 0 0 0 0 0 0 0 0 0 0 0 0 0 0 0 0 0 0 0 4.43794e-05 0 0 0 0 0 0 0 0 0 0 0 0 0 0 0 0 0 0 0 0 0 0 0 0 0 0 0 0 0 0 0 0 0 0 0 0 0 0 0 0 0 0 0 

0 0 0 0 0 0 0 0 0 0 0 0 0 0 0 0 0 0 0 0 6.35748e-05 0 0 0 0 0 0 0 0 0 0 0 0 0 0 0 0 0 8.72374e-07 0 1.59632e-07 -0.000108912 0 0 0 0 0 0 0 0 0 0 0 0 0 0 0 0 0 0 0 0 4.4305e-05 0 0 0 0 0 0 0 0 0 0 0 0 0 0 0 0 0 0 0 0 0 0 0 0 0 0 0 0 0 0 0 0 0 0 0 0 0 0 0 0 0 0 

0 0 0 0 0 0 0 0 0 0 0 0 0 0 0 0 0 0 0 0 0 4.4305e-05 0 0 0 0 0 0 0 0 0 0 0 0 0 0 0 0 0 0 0 0 -8.96421e-05 1.59632e-07 0 8.72374e-07 0 0 0 0 0 0 0 0 0 0 0 0 0 0 0 0 0 4.4305e-05 0 0 0 0 0 0 0 0 0 0 0 0 0 0 0 0 0 0 0 0 0 0 0 0 0 0 0 0 0 0 0 0 0 0 0 0 0 0 0 0 0 

0 0 0 0 0 0 0 0 0 0 0 0 0 0 0 0 0 0 0 0 0 0 4.43794e-05 0 0 0 0 0 0 0 0 0 0 0 0 0 0 0 0 0 0 0 1.59632e-07 -8.99518e-05 1.59632e-07 0 8.73844e-07 0 0 0 0 0 0 0 0 0 0 0 0 0 0 0 0 0 4.43794e-05 0 0 0 0 0 0 0 0 0 0 0 0 0 0 0 0 0 0 0 0 0 0 0 0 0 0 0 0 0 0 0 0 0 0 0 0 0 0 0 0 

0 0 0 0 0 0 0 0 0 0 0 0 0 0 0 0 0 0 0 0 0 0 0 4.4305e-05 0 0 0 0 0 0 0 0 0 0 0 0 0 0 0 0 0 0 0 1.59632e-07 -8.96421e-05 0 0 8.72374e-07 0 0 0 0 0 0 0 0 0 0 0 0 0 0 0 0 0 4.4305e-05 0 0 0 0 0 0 0 0 0 0 0 0 0 0 0 0 0 0 0 0 0 0 0 0 0 0 0 0 0 0 0 0 0 0 0 0 0 0 0 

0 0 0 0 0 0 0 0 0 0 0 0 0 0 0 0 0 0 0 0 0 0 0 0 4.47127e-05 0 0 0 0 0 0 0 0 0 0 0 0 0 0 0 0 0 8.72374e-07 0 0 -9.13353e-05 1.61102e-07 0 8.76369e-07 0 0 0 0 0 0 0 0 0 0 0 0 0 0 0 0 0 4.47127e-05 0 0 0 0 0 0 0 0 0 0 0 0 0 0 0 0 0 0 0 0 0 0 0 0 0 0 0 0 0 0 0 0 0 0 0 0 0 0 

0 0 0 0 0 0 0 0 0 0 0 0 0 0 0 0 0 0 0 0 0 0 0 0 0 4.47884e-05 0 0 0 0 0 0 0 0 0 0 0 0 0 0 0 0 0 8.73844e-07 0 1.61102e-07 -9.16507e-05 1.61102e-07 0 8.77853e-07 0 0 0 0 0 0 0 0 0 0 0 0 0 0 0 0 0 4.47884e-05 0 0 0 0 0 0 0 0 0 0 0 0 0 0 0 0 0 0 0 0 0 0 0 0 0 0 0 0 0 0 0 0 0 0 0 0 0 

0 0 0 0 0 0 0 0 0 0 0 0 0 0 0 0 0 0 0 0 0 0 0 0 0 0 4.47127e-05 0 0 0 0 0 0 0 0 0 0 0 0 0 0 0 0 0 8.72374e-07 0 1.61102e-07 -9.13353e-05 0 0 8.76369e-07 0 0 0 0 0 0 0 0 0 0 0 0 0 0 0 0 0 4.47127e-05 0 0 0 0 0 0 0 0 0 0 0 0 0 0 0 0 0 0 0 0 0 0 0 0 0 0 0 0 0 0 0 0 0 0 0 0 

0 0 0 0 0 0 0 0 0 0 0 0 0 0 0 0 0 0 0 0 0 0 0 0 0 0 0 4.47127e-05 0 0 0 0 0 0 0 0 0 0 0 0 0 0 0 0 0 8.76369e-07 0 0 -9.13393e-05 1.61102e-07 0 8.76369e-07 0 0 0 0 0 0 0 0 0 0 0 0 0 0 0 0 0 4.47127e-05 0 0 0 0 0 0 0 0 0 0 0 0 0 0 0 0 0 0 0 0 0 0 0 0 0 0 0 0 0 0 0 0 0 0 0 

0 0 0 0 0 0 0 0 0 0 0 0 0 0 0 0 0 0 0 0 0 0 0 0 0 0 0 0 4.47884e-05 0 0 0 0 0 0 0 0 0 0 0 0 0 0 0 0 0 8.77853e-07 0 1.61102e-07 -9.16547e-05 1.61102e-07 0 8.77853e-07 0 0 0 0 0 0 0 0 0 0 0 0 0 0 0 0 0 4.47884e-05 0 0 0 0 0 0 0 0 0 0 0 0 0 0 0 0 0 0 0 0 0 0 0 0 0 0 0 0 0 0 0 0 0 0 

0 0 0 0 0 0 0 0 0 0 0 0 0 0 0 0 0 0 0 0 0 0 0 0 0 0 0 0 0 4.47127e-05 0 0 0 0 0 0 0 0 0 0 0 0 0 0 0 0 0 8.76369e-07 0 1.61102e-07 -9.13393e-05 0 0 8.76369e-07 0 0 0 0 0 0 0 0 0 0 0 0 0 0 0 0 0 4.47127e-05 0 0 0 0 0 0 0 0 0 0 0 0 0 0 0 0 0 0 0 0 0 0 0 0 0 0 0 0 0 0 0 0 0 

0 0 0 0 0 0 0 0 0 0 0 0 0 0 0 0 0 0 0 0 0 0 0 0 0 0 0 0 0 0 4.47127e-05 0 0 0 0 0 0 0 0 0 0 0 0 0 0 0 0 0 8.76369e-07 0 0 -9.13393e-05 1.61102e-07 0 8.76369e-07 0 0 0 0 0 0 0 0 0 0 0 0 0 0 0 0 0 4.47127e-05 0 0 0 0 0 0 0 0 0 0 0 0 0 0 0 0 0 0 0 0 0 0 0 0 0 0 0 0 0 0 0 0 

0 0 0 0 0 0 0 0 0 0 0 0 0 0 0 0 0 0 0 0 0 0 0 0 0 0 0 0 0 0 0 4.47884e-05 0 0 0 0 0 0 0 0 0 0 0 0 0 0 0 0 0 8.77853e-07 0 1.61102e-07 -9.16547e-05 1.61102e-07 0 8.77853e-07 0 0 0 0 0 0 0 0 0 0 0 0 0 0 0 0 0 4.47884e-05 0 0 0 0 0 0 0 0 0 0 0 0 0 0 0 0 0 0 0 0 0 0 0 0 0 0 0 0 0 0 0 

0 0 0 0 0 0 0 0 0 0 0 0 0 0 0 0 0 0 0 0 0 0 0 0 0 0 0 0 0 0 0 0 4.47127e-05 0 0 0 0 0 0 0 0 0 0 0 0 0 0 0 0 0 8.76369e-07 0 1.61102e-07 -9.13393e-05 0 0 8.76369e-07 0 0 0 0 0 0 0 0 0 0 0 0 0 0 0 0 0 4.47127e-05 0 0 0 0 0 0 0 0 0 0 0 0 0 0 0 0 0 0 0 0 0 0 0 0 0 0 0 0 0 0 

0 0 0 0 0 0 0 0 0 0 0 0 0 0 0 0 0 0 0 0 0 0 0 0 0 0 0 0 0 0 0 0 0 4.47127e-05 0 0 0 0 0 0 0 0 0 0 0 0 0 0 0 0 0 8.76369e-07 0 0 -9.13393e-05 1.61102e-07 0 8.76369e-07 0 0 0 0 0 0 0 0 0 0 0 0 0 0 0 0 0 4.47127e-05 0 0 0 0 0 0 0 0 0 0 0 0 0 0 0 0 0 0 0 0 0 0 0 0 0 0 0 0 0 

0 0 0 0 0 0 0 0 0 0 0 0 0 0 0 0 0 0 0 0 0 0 0 0 0 0 0 0 0 0 0 0 0 0 4.47884e-05 0 0 0 0 0 0 0 0 0 0 0 0 0 0 0 0 0 8.77853e-07 0 1.61102e-07 -9.16547e-05 1.61102e-07 0 8.77853e-07 0 0 0 0 0 0 0 0 0 0 0 0 0 0 0 0 0 4.47884e-05 0 0 0 0 0 0 0 0 0 0 0 0 0 0 0 0 0 0 0 0 0 0 0 0 0 0 0 0 

0 0 0 0 0 0 0 0 0 0 0 0 0 0 0 0 0 0 0 0 0 0 0 0 0 0 0 0 0 0 0 0 0 0 0 4.47127e-05 0 0 0 0 0 0 0 0 0 0 0 0 0 0 0 0 0 8.76369e-07 0 1.61102e-07 -9.13393e-05 0 0 8.76369e-07 0 0 0 0 0 0 0 0 0 0 0 0 0 0 0 0 0 4.47127e-05 0 0 0 0 0 0 0 0 0 0 0 0 0 0 0 0 0 0 0 0 0 0 0 0 0 0 0 

0 0 0 0 0 0 0 0 0 0 0 0 0 0 0 0 0 0 0 0 0 0 0 0 0 0 0 0 0 0 0 0 0 0 0 0 4.47127e-05 0 0 0 0 0 0 0 0 0 0 0 0 0 0 0 0 0 8.76369e-07 0 0 -9.13353e-05 1.61102e-07 0 8.72374e-07 0 0 0 0 0 0 0 0 0 0 0 0 0 0 0 0 0 4.47127e-05 0 0 0 0 0 0 0 0 0 0 0 0 0 0 0 0 0 0 0 0 0 0 0 0 0 0 

0 0 0 0 0 0 0 0 0 0 0 0 0 0 0 0 0 0 0 0 0 0 0 0 0 0 0 0 0 0 0 0 0 0 0 0 0 4.47884e-05 0 0 0 0 0 0 0 0 0 0 0 0 0 0 0 0 0 8.77853e-07 0 1.61102e-07 -9.16507e-05 1.61102e-07 0 8.73844e-07 0 0 0 0 0 0 0 0 0 0 0 0 0 0 0 0 0 4.47884e-05 0 0 0 0 0 0 0 0 0 0 0 0 0 0 0 0 0 0 0 0 0 0 0 0 0 

0 0 0 0 0 0 0 0 0 0 0 0 0 0 0 0 0 0 0 0 0 0 0 0 0 0 0 0 0 0 0 0 0 0 0 0 0 0 4.47127e-05 0 0 0 0 0 0 0 0 0 0 0 0 0 0 0 0 0 8.76369e-07 0 1.61102e-07 -9.13353e-05 0 0 8.72374e-07 0 0 0 0 0 0 0 0 0 0 0 0 0 0 0 0 0 4.47127e-05 0 0 0 0 0 0 0 0 0 0 0 0 0 0 0 0 0 0 0 0 0 0 0 0 

0 0 0 0 0 0 0 0 0 0 0 0 0 0 0 0 0 0 0 0 0 0 0 0 0 0 0 0 0 0 0 0 0 0 0 0 0 0 0 4.4305e-05 0 0 0 0 0 0 0 0 0 0 0 0 0 0 0 0 0 8.72374e-07 0 0 -8.96421e-05 1.59632e-07 0 0 0 0 0 0 0 0 0 0 0 0 0 0 0 0 0 0 0 4.4305e-05 0 0 0 0 0 0 0 0 0 0 0 0 0 0 0 0 0 0 0 0 0 0 0 

0 0 0 0 0 0 0 0 0 0 0 0 0 0 0 0 0 0 0 0 0 0 0 0 0 0 0 0 0 0 0 0 0 0 0 0 0 0 0 0 4.43794e-05 0 0 0 0 0 0 0 0 0 0 0 0 0 0 0 0 0 8.73844e-07 0 1.59632e-07 -8.99518e-05 1.59632e-07 0 0 0 0 0 0 0 0 0 0 0 0 0 0 0 0 0 0 0 4.43794e-05 0 0 0 0 0 0 0 0 0 0 0 0 0 0 0 0 0 0 0 0 0 0 

0 0 0 0 0 0 0 0 0 0 0 0 0 0 0 0 0 0 0 0 0 0 0 0 0 0 0 0 0 0 0 0 0 0 0 0 0 0 0 0 0 4.4305e-05 0 0 0 0 0 0 0 0 0 0 0 0 0 0 0 0 0 8.72374e-07 0 1.59632e-07 -8.96421e-05 0 0 0 0 0 0 0 0 0 0 0 0 0 0 0 0 0 0 0 0 4.4305e-05 0 0 0 0 0 0 0 0 0 0 0 0 0 0 0 0 0 0 0 0 0 

0 0 0 0 0 0 0 0 0 0 0 0 0 0 0 0 0 0 0 0 0 0 0 0 0 0 0 0 0 0 0 0 0 0 0 0 0 0 0 0 0 0 4.4305e-05 0 0 0 0 0 0 0 0 0 0 0 0 0 0 0 0 0 0 0 0 -0.000108912 1.59632e-07 0 8.72374e-07 0 0 0 0 0 0 0 0 0 0 0 0 0 0 0 0 0 6.35748e-05 0 0 0 0 0 0 0 0 0 0 0 0 0 0 0 0 0 0 0 0 

0 0 0 0 0 0 0 0 0 0 0 0 0 0 0 0 0 0 0 0 0 0 0 0 0 0 0 0 0 0 0 0 0 0 0 0 0 0 0 0 0 0 0 4.43794e-05 0 0 0 0 0 0 0 0 0 0 0 0 0 0 0 0 0 0 0 1.59632e-07 -0.000109315 1.59632e-07 0 8.73844e-07 0 0 0 0 0 0 0 0 0 0 0 0 0 0 0 0 0 6.37421e-05 0 0 0 0 0 0 0 0 0 0 0 0 0 0 0 0 0 0 0 

0 0 0 0 0 0 0 0 0 0 0 0 0 0 0 0 0 0 0 0 0 0 0 0 0 0 0 0 0 0 0 0 0 0 0 0 0 0 0 0 0 0 0 0 4.4305e-05 0 0 0 0 0 0 0 0 0 0 0 0 0 0 0 0 0 0 0 1.59632e-07 -0.000108912 0 0 8.72374e-07 0 0 0 0 0 0 0 0 0 0 0 0 0 0 0 0 0 6.35748e-05 0 0 0 0 0 0 0 0 0 0 0 0 0 0 0 0 0 0 

0 0 0 0 0 0 0 0 0 0 0 0 0 0 0 0 0 0 0 0 0 0 0 0 0 0 0 0 0 0 0 0 0 0 0 0 0 0 0 0 0 0 0 0 0 4.47127e-05 0 0 0 0 0 0 0 0 0 0 0 0 0 0 0 0 0 8.72374e-07 0 0 -0.00011112 1.61102e-07 0 8.76369e-07 0 0 0 0 0 0 0 0 0 0 0 0 0 0 0 0 0 6.44971e-05 0 0 0 0 0 0 0 0 0 0 0 0 0 0 0 0 0 

0 0 0 0 0 0 0 0 0 0 0 0 0 0 0 0 0 0 0 0 0 0 0 0 0 0 0 0 0 0 0 0 0 0 0 0 0 0 0 0 0 0 0 0 0 0 4.47884e-05 0 0 0 0 0 0 0 0 0 0 0 0 0 0 0 0 0 8.73844e-07 0 1.61102e-07 -0.000111532 1.61102e-07 0 8.77853e-07 0 0 0 0 0 0 0 0 0 0 0 0 0 0 0 0 0 6.46696e-05 0 0 0 0 0 0 0 0 0 0 0 0 0 0 0 0 

0 0 0 0 0 0 0 0 0 0 0 0 0 0 0 0 0 0 0 0 0 0 0 0 0 0 0 0 0 0 0 0 0 0 0 0 0 0 0 0 0 0 0 0 0 0 0 4.47127e-05 0 0 0 0 0 0 0 0 0 0 0 0 0 0 0 0 0 8.72374e-07 0 1.61102e-07 -0.00011112 0 0 8.76369e-07 0 0 0 0 0 0 0 0 0 0 0 0 0 0 0 0 0 6.44971e-05 0 0 0 0 0 0 0 0 0 0 0 0 0 0 0 

0 0 0 0 0 0 0 0 0 0 0 0 0 0 0 0 0 0 0 0 0 0 0 0 0 0 0 0 0 0 0 0 0 0 0 0 0 0 0 0 0 0 0 0 0 0 0 0 4.47127e-05 0 0 0 0 0 0 0 0 0 0 0 0 0 0 0 0 0 8.76369e-07 0 0 -0.000111124 1.61102e-07 0 8.76369e-07 0 0 0 0 0 0 0 0 0 0 0 0 0 0 0 0 0 6.44971e-05 0 0 0 0 0 0 0 0 0 0 0 0 0 0 

0 0 0 0 0 0 0 0 0 0 0 0 0 0 0 0 0 0 0 0 0 0 0 0 0 0 0 0 0 0 0 0 0 0 0 0 0 0 0 0 0 0 0 0 0 0 0 0 0 4.47884e-05 0 0 0 0 0 0 0 0 0 0 0 0 0 0 0 0 0 8.77853e-07 0 1.61102e-07 -0.000111536 1.61102e-07 0 8.77853e-07 0 0 0 0 0 0 0 0 0 0 0 0 0 0 0 0 0 6.46696e-05 0 0 0 0 0 0 0 0 0 0 0 0 0 

0 0 0 0 0 0 0 0 0 0 0 0 0 0 0 0 0 0 0 0 0 0 0 0 0 0 0 0 0 0 0 0 0 0 0 0 0 0 0 0 0 0 0 0 0 0 0 0 0 0 4.47127e-05 0 0 0 0 0 0 0 0 0 0 0 0 0 0 0 0 0 8.76369e-07 0 1.61102e-07 -0.000111124 0 0 8.76369e-07 0 0 0 0 0 0 0 0 0 0 0 0 0 0 0 0 0 6.44971e-05 0 0 0 0 0 0 0 0 0 0 0 0 

0 0 0 0 0 0 0 0 0 0 0 0 0 0 0 0 0 0 0 0 0 0 0 0 0 0 0 0 0 0 0 0 0 0 0 0 0 0 0 0 0 0 0 0 0 0 0 0 0 0 0 4.47127e-05 0 0 0 0 0 0 0 0 0 0 0 0 0 0 0 0 0 8.76369e-07 0 0 -0.000111124 1.61102e-07 0 8.76369e-07 0 0 0 0 0 0 0 0 0 0 0 0 0 0 0 0 0 6.44971e-05 0 0 0 0 0 0 0 0 0 0 0 

0 0 0 0 0 0 0 0 0 0 0 0 0 0 0 0 0 0 0 0 0 0 0 0 0 0 0 0 0 0 0 0 0 0 0 0 0 0 0 0 0 0 0 0 0 0 0 0 0 0 0 0 4.47884e-05 0 0 0 0 0 0 0 0 0 0 0 0 0 0 0 0 0 8.77853e-07 0 1.61102e-07 -0.000111536 1.61102e-07 0 8.77853e-07 0 0 0 0 0 0 0 0 0 0 0 0 0 0 0 0 0 6.46696e-05 0 0 0 0 0 0 0 0 0 0 

0 0 0 0 0 0 0 0 0 0 0 0 0 0 0 0 0 0 0 0 0 0 0 0 0 0 0 0 0 0 0 0 0 0 0 0 0 0 0 0 0 0 0 0 0 0 0 0 0 0 0 0 0 4.47127e-05 0 0 0 0 0 0 0 0 0 0 0 0 0 0 0 0 0 8.76369e-07 0 1.61102e-07 -0.000111124 0 0 8.76369e-07 0 0 0 0 0 0 0 0 0 0 0 0 0 0 0 0 0 6.44971e-05 0 0 0 0 0 0 0 0 0 

0 0 0 0 0 0 0 0 0 0 0 0 0 0 0 0 0 0 0 0 0 0 0 0 0 0 0 0 0 0 0 0 0 0 0 0 0 0 0 0 0 0 0 0 0 0 0 0 0 0 0 0 0 0 4.47127e-05 0 0 0 0 0 0 0 0 0 0 0 0 0 0 0 0 0 8.76369e-07 0 0 -0.000111124 1.61102e-07 0 8.76369e-07 0 0 0 0 0 0 0 0 0 0 0 0 0 0 0 0 0 6.44971e-05 0 0 0 0 0 0 0 0 

0 0 0 0 0 0 0 0 0 0 0 0 0 0 0 0 0 0 0 0 0 0 0 0 0 0 0 0 0 0 0 0 0 0 0 0 0 0 0 0 0 0 0 0 0 0 0 0 0 0 0 0 0 0 0 4.47884e-05 0 0 0 0 0 0 0 0 0 0 0 0 0 0 0 0 0 8.77853e-07 0 1.61102e-07 -0.000111536 1.61102e-07 0 8.77853e-07 0 0 0 0 0 0 0 0 0 0 0 0 0 0 0 0 0 6.46696e-05 0 0 0 0 0 0 0 

0 0 0 0 0 0 0 0 0 0 0 0 0 0 0 0 0 0 0 0 0 0 0 0 0 0 0 0 0 0 0 0 0 0 0 0 0 0 0 0 0 0 0 0 0 0 0 0 0 0 0 0 0 0 0 0 4.47127e-05 0 0 0 0 0 0 0 0 0 0 0 0 0 0 0 0 0 8.76369e-07 0 1.61102e-07 -0.000111124 0 0 8.76369e-07 0 0 0 0 0 0 0 0 0 0 0 0 0 0 0 0 0 6.44971e-05 0 0 0 0 0 0 

0 0 0 0 0 0 0 0 0 0 0 0 0 0 0 0 0 0 0 0 0 0 0 0 0 0 0 0 0 0 0 0 0 0 0 0 0 0 0 0 0 0 0 0 0 0 0 0 0 0 0 0 0 0 0 0 0 4.47127e-05 0 0 0 0 0 0 0 0 0 0 0 0 0 0 0 0 0 8.76369e-07 0 0 -0.00011112 1.61102e-07 0 8.72374e-07 0 0 0 0 0 0 0 0 0 0 0 0 0 0 0 0 0 6.44971e-05 0 0 0 0 0 

0 0 0 0 0 0 0 0 0 0 0 0 0 0 0 0 0 0 0 0 0 0 0 0 0 0 0 0 0 0 0 0 0 0 0 0 0 0 0 0 0 0 0 0 0 0 0 0 0 0 0 0 0 0 0 0 0 0 4.47884e-05 0 0 0 0 0 0 0 0 0 0 0 0 0 0 0 0 0 8.77853e-07 0 1.61102e-07 -0.000111532 1.61102e-07 0 8.73844e-07 0 0 0 0 0 0 0 0 0 0 0 0 0 0 0 0 0 6.46696e-05 0 0 0 0 

0 0 0 0 0 0 0 0 0 0 0 0 0 0 0 0 0 0 0 0 0 0 0 0 0 0 0 0 0 0 0 0 0 0 0 0 0 0 0 0 0 0 0 0 0 0 0 0 0 0 0 0 0 0 0 0 0 0 0 4.47127e-05 0 0 0 0 0 0 0 0 0 0 0 0 0 0 0 0 0 8.76369e-07 0 1.61102e-07 -0.00011112 0 0 8.72374e-07 0 0 0 0 0 0 0 0 0 0 0 0 0 0 0 0 0 6.44971e-05 0 0 0 

0 0 0 0 0 0 0 0 0 0 0 0 0 0 0 0 0 0 0 0 0 0 0 0 0 0 0 0 0 0 0 0 0 0 0 0 0 0 0 0 0 0 0 0 0 0 0 0 0 0 0 0 0 0 0 0 0 0 0 0 4.4305e-05 0 0 0 0 0 0 0 0 0 0 0 0 0 0 0 0 0 8.72374e-07 0 0 -0.000108912 1.59632e-07 0 0 0 0 0 0 0 0 0 0 0 0 0 0 0 0 0 0 0 6.35748e-05 0 0 

0 0 0 0 0 0 0 0 0 0 0 0 0 0 0 0 0 0 0 0 0 0 0 0 0 0 0 0 0 0 0 0 0 0 0 0 0 0 0 0 0 0 0 0 0 0 0 0 0 0 0 0 0 0 0 0 0 0 0 0 0 4.43794e-05 0 0 0 0 0 0 0 0 0 0 0 0 0 0 0 0 0 8.73844e-07 0 1.59632e-07 -0.000109315 1.59632e-07 0 0 0 0 0 0 0 0 0 0 0 0 0 0 0 0 0 0 0 6.37421e-05 0 

0 0 0 0 0 0 0 0 0 0 0 0 0 0 0 0 0 0 0 0 0 0 0 0 0 0 0 0 0 0 0 0 0 0 0 0 0 0 0 0 0 0 0 0 0 0 0 0 0 0 0 0 0 0 0 0 0 0 0 0 0 0 4.4305e-05 0 0 0 0 0 0 0 0 0 0 0 0 0 0 0 0 0 8.72374e-07 0 1.59632e-07 -0.000108912 0 0 0 0 0 0 0 0 0 0 0 0 0 0 0 0 0 0 0 0 6.35748e-05 

0 0 0 0 0 0 0 0 0 0 0 0 0 0 0 0 0 0 0 0 0 0 0 0 0 0 0 0 0 0 0 0 0 0 0 0 0 0 0 0 0 0 0 0 0 0 0 0 0 0 0 0 0 0 0 0 0 0 0 0 0 0 0 6.35748e-05 0 0 0 0 0 0 0 0 0 0 0 0 0 0 0 0 0 0 0 0 -6.55113e-05 2.98709e-07 0 1.63784e-06 0 0 0 0 0 0 0 0 0 0 0 0 0 0 0 0 0 

0 0 0 0 0 0 0 0 0 0 0 0 0 0 0 0 0 0 0 0 0 0 0 0 0 0 0 0 0 0 0 0 0 0 0 0 0 0 0 0 0 0 0 0 0 0 0 0 0 0 0 0 0 0 0 0 0 0 0 0 0 0 0 0 6.37421e-05 0 0 0 0 0 0 0 0 0 0 0 0 0 0 0 0 0 0 0 2.98709e-07 -6.59825e-05 2.98709e-07 0 1.64303e-06 0 0 0 0 0 0 0 0 0 0 0 0 0 0 0 0 

0 0 0 0 0 0 0 0 0 0 0 0 0 0 0 0 0 0 0 0 0 0 0 0 0 0 0 0 0 0 0 0 0 0 0 0 0 0 0 0 0 0 0 0 0 0 0 0 0 0 0 0 0 0 0 0 0 0 0 0 0 0 0 0 0 6.35748e-05 0 0 0 0 0 0 0 0 0 0 0 0 0 0 0 0 0 0 0 2.98709e-07 -6.55113e-05 0 0 1.63784e-06 0 0 0 0 0 0 0 0 0 0 0 0 0 0 0 

0 0 0 0 0 0 0 0 0 0 0 0 0 0 0 0 0 0 0 0 0 0 0 0 0 0 0 0 0 0 0 0 0 0 0 0 0 0 0 0 0 0 0 0 0 0 0 0 0 0 0 0 0 0 0 0 0 0 0 0 0 0 0 0 0 0 6.44971e-05 0 0 0 0 0 0 0 0 0 0 0 0 0 0 0 0 0 1.63784e-06 0 0 -6.80908e-05 3.03898e-07 0 1.65192e-06 0 0 0 0 0 0 0 0 0 0 0 0 0 0 

0 0 0 0 0 0 0 0 0 0 0 0 0 0 0 0 0 0 0 0 0 0 0 0 0 0 0 0 0 0 0 0 0 0 0 0 0 0 0 0 0 0 0 0 0 0 0 0 0 0 0 0 0 0 0 0 0 0 0 0 0 0 0 0 0 0 0 6.46696e-05 0 0 0 0 0 0 0 0 0 0 0 0 0 0 0 0 0 1.64303e-06 0 3.03898e-07 -6.85777e-05 3.03898e-07 0 1.6572e-06 0 0 0 0 0 0 0 0 0 0 0 0 0 

0 0 0 0 0 0 0 0 0 0 0 0 0 0 0 0 0 0 0 0 0 0 0 0 0 0 0 0 0 0 0 0 0 0 0 0 0 0 0 0 0 0 0 0 0 0 0 0 0 0 0 0 0 0 0 0 0 0 0 0 0 0 0 0 0 0 0 0 6.44971e-05 0 0 0 0 0 0 0 0 0 0 0 0 0 0 0 0 0 1.63784e-06 0 3.03898e-07 -6.80908e-05 0 0 1.65192e-06 0 0 0 0 0 0 0 0 0 0 0 0 

0 0 0 0 0 0 0 0 0 0 0 0 0 0 0 0 0 0 0 0 0 0 0 0 0 0 0 0 0 0 0 0 0 0 0 0 0 0 0 0 0 0 0 0 0 0 0 0 0 0 0 0 0 0 0 0 0 0 0 0 0 0 0 0 0 0 0 0 0 6.44971e-05 0 0 0 0 0 0 0 0 0 0 0 0 0 0 0 0 0 1.65192e-06 0 0 -6.81048e-05 3.03898e-07 0 1.65192e-06 0 0 0 0 0 0 0 0 0 0 0 

0 0 0 0 0 0 0 0 0 0 0 0 0 0 0 0 0 0 0 0 0 0 0 0 0 0 0 0 0 0 0 0 0 0 0 0 0 0 0 0 0 0 0 0 0 0 0 0 0 0 0 0 0 0 0 0 0 0 0 0 0 0 0 0 0 0 0 0 0 0 6.46696e-05 0 0 0 0 0 0 0 0 0 0 0 0 0 0 0 0 0 1.6572e-06 0 3.03898e-07 -6.85918e-05 3.03898e-07 0 1.6572e-06 0 0 0 0 0 0 0 0 0 0 

0 0 0 0 0 0 0 0 0 0 0 0 0 0 0 0 0 0 0 0 0 0 0 0 0 0 0 0 0 0 0 0 0 0 0 0 0 0 0 0 0 0 0 0 0 0 0 0 0 0 0 0 0 0 0 0 0 0 0 0 0 0 0 0 0 0 0 0 0 0 0 6.44971e-05 0 0 0 0 0 0 0 0 0 0 0 0 0 0 0 0 0 1.65192e-06 0 3.03898e-07 -6.81048e-05 0 0 1.65192e-06 0 0 0 0 0 0 0 0 0 

0 0 0 0 0 0 0 0 0 0 0 0 0 0 0 0 0 0 0 0 0 0 0 0 0 0 0 0 0 0 0 0 0 0 0 0 0 0 0 0 0 0 0 0 0 0 0 0 0 0 0 0 0 0 0 0 0 0 0 0 0 0 0 0 0 0 0 0 0 0 0 0 6.44971e-05 0 0 0 0 0 0 0 0 0 0 0 0 0 0 0 0 0 1.65192e-06 0 0 -6.81048e-05 3.03898e-07 0 1.65192e-06 0 0 0 0 0 0 0 0 

0 0 0 0 0 0 0 0 0 0 0 0 0 0 0 0 0 0 0 0 0 0 0 0 0 0 0 0 0 0 0 0 0 0 0 0 0 0 0 0 0 0 0 0 0 0 0 0 0 0 0 0 0 0 0 0 0 0 0 0 0 0 0 0 0 0 0 0 0 0 0 0 0 6.46696e-05 0 0 0 0 0 0 0 0 0 0 0 0 0 0 0 0 0 1.6572e-06 0 3.03898e-07 -6.85918e-05 3.03898e-07 0 1.6572e-06 0 0 0 0 0 0 0 

0 0 0 0 0 0 0 0 0 0 0 0 0 0 0 0 0 0 0 0 0 0 0 0 0 0 0 0 0 0 0 0 0 0 0 0 0 0 0 0 0 0 0 0 0 0 0 0 0 0 0 0 0 0 0 0 0 0 0 0 0 0 0 0 0 0 0 0 0 0 0 0 0 0 6.44971e-05 0 0 0 0 0 0 0 0 0 0 0 0 0 0 0 0 0 1.65192e-06 0 3.03898e-07 -6.81048e-05 0 0 1.65192e-06 0 0 0 0 0 0 

0 0 0 0 0 0 0 0 0 0 0 0 0 0 0 0 0 0 0 0 0 0 0 0 0 0 0 0 0 0 0 0 0 0 0 0 0 0 0 0 0 0 0 0 0 0 0 0 0 0 0 0 0 0 0 0 0 0 0 0 0 0 0 0 0 0 0 0 0 0 0 0 0 0 0 6.44971e-05 0 0 0 0 0 0 0 0 0 0 0 0 0 0 0 0 0 1.65192e-06 0 0 -6.81048e-05 3.03898e-07 0 1.65192e-06 0 0 0 0 0 

0 0 0 0 0 0 0 0 0 0 0 0 0 0 0 0 0 0 0 0 0 0 0 0 0 0 0 0 0 0 0 0 0 0 0 0 0 0 0 0 0 0 0 0 0 0 0 0 0 0 0 0 0 0 0 0 0 0 0 0 0 0 0 0 0 0 0 0 0 0 0 0 0 0 0 0 6.46696e-05 0 0 0 0 0 0 0 0 0 0 0 0 0 0 0 0 0 1.6572e-06 0 3.03898e-07 -6.85918e-05 3.03898e-07 0 1.6572e-06 0 0 0 0 

0 0 0 0 0 0 0 0 0 0 0 0 0 0 0 0 0 0 0 0 0 0 0 0 0 0 0 0 0 0 0 0 0 0 0 0 0 0 0 0 0 0 0 0 0 0 0 0 0 0 0 0 0 0 0 0 0 0 0 0 0 0 0 0 0 0 0 0 0 0 0 0 0 0 0 0 0 6.44971e-05 0 0 0 0 0 0 0 0 0 0 0 0 0 0 0 0 0 1.65192e-06 0 3.03898e-07 -6.81048e-05 0 0 1.65192e-06 0 0 0 

0 0 0 0 0 0 0 0 0 0 0 0 0 0 0 0 0 0 0 0 0 0 0 0 0 0 0 0 0 0 0 0 0 0 0 0 0 0 0 0 0 0 0 0 0 0 0 0 0 0 0 0 0 0 0 0 0 0 0 0 0 0 0 0 0 0 0 0 0 0 0 0 0 0 0 0 0 0 6.44971e-05 0 0 0 0 0 0 0 0 0 0 0 0 0 0 0 0 0 1.65192e-06 0 0 -6.80908e-05 3.03898e-07 0 1.63784e-06 0 0 

0 0 0 0 0 0 0 0 0 0 0 0 0 0 0 0 0 0 0 0 0 0 0 0 0 0 0 0 0 0 0 0 0 0 0 0 0 0 0 0 0 0 0 0 0 0 0 0 0 0 0 0 0 0 0 0 0 0 0 0 0 0 0 0 0 0 0 0 0 0 0 0 0 0 0 0 0 0 0 6.46696e-05 0 0 0 0 0 0 0 0 0 0 0 0 0 0 0 0 0 1.6572e-06 0 3.03898e-07 -6.85777e-05 3.03898e-07 0 1.64303e-06 0 

0 0 0 0 0 0 0 0 0 0 0 0 0 0 0 0 0 0 0 0 0 0 0 0 0 0 0 0 0 0 0 0 0 0 0 0 0 0 0 0 0 0 0 0 0 0 0 0 0 0 0 0 0 0 0 0 0 0 0 0 0 0 0 0 0 0 0 0 0 0 0 0 0 0 0 0 0 0 0 0 6.44971e-05 0 0 0 0 0 0 0 0 0 0 0 0 0 0 0 0 0 1.65192e-06 0 3.03898e-07 -6.80908e-05 0 0 1.63784e-06 

0 0 0 0 0 0 0 0 0 0 0 0 0 0 0 0 0 0 0 0 0 0 0 0 0 0 0 0 0 0 0 0 0 0 0 0 0 0 0 0 0 0 0 0 0 0 0 0 0 0 0 0 0 0 0 0 0 0 0 0 0 0 0 0 0 0 0 0 0 0 0 0 0 0 0 0 0 0 0 0 0 6.35748e-05 0 0 0 0 0 0 0 0 0 0 0 0 0 0 0 0 0 1.63784e-06 0 0 -6.55113e-05 2.98709e-07 0 

0 0 0 0 0 0 0 0 0 0 0 0 0 0 0 0 0 0 0 0 0 0 0 0 0 0 0 0 0 0 0 0 0 0 0 0 0 0 0 0 0 0 0 0 0 0 0 0 0 0 0 0 0 0 0 0 0 0 0 0 0 0 0 0 0 0 0 0 0 0 0 0 0 0 0 0 0 0 0 0 0 0 6.37421e-05 0 0 0 0 0 0 0 0 0 0 0 0 0 0 0 0 0 1.64303e-06 0 2.98709e-07 -6.59825e-05 2.98709e-07 

0 0 0 0 0 0 0 0 0 0 0 0 0 0 0 0 0 0 0 0 0 0 0 0 0 0 0 0 0 0 0 0 0 0 0 0 0 0 0 0 0 0 0 0 0 0 0 0 0 0 0 0 0 0 0 0 0 0 0 0 0 0 0 0 0 0 0 0 0 0 0 0 0 0 0 0 0 0 0 0 0 0 0 6.35748e-05 0 0 0 0 0 0 0 0 0 0 0 0 0 0 0 0 0 1.63784e-06 0 2.98709e-07 -6.55113e-05 

=== b(i,j) ===

1.23696e-10 

-2.5431e-13 

-1.23442e-10 

9.45572e-10 

-4.86184e-13 

-9.45086e-10 

5.8033e-09 

5.02419e-13 

-5.8038e-09 

3.54272e-08 

3.19715e-13 

-3.54275e-08 

2.16153e-07 

-1.12016e-13 

-2.16153e-07 

1.31882e-06 

-7.70648e-14 

-1.31882e-06 

8.04669e-06 

4.83034e-14 

-8.04669e-06 

1.23427e-10 

-2.61132e-13 

-1.23166e-10 

9.45596e-10 

-5.02229e-13 

-9.45094e-10 

5.80327e-09 

5.15748e-13 

-5.80379e-09 

3.54271e-08 

3.12968e-13 

-3.54274e-08 

2.16153e-07 

-9.18625e-14 

-2.16153e-07 

1.31882e-06 

-6.38155e-14 

-1.31882e-06 

8.04669e-06 

7.25593e-14 

-8.04669e-06 

1.22877e-10 

-2.33033e-13 

-1.22644e-10 

9.46104e-10 

-4.0409e-13 

-9.45699e-10 

5.80427e-09 

5.28979e-13 

-5.8048e-09 

3.54263e-08 

2.54954e-13 

-3.54266e-08 

2.16153e-07 

-5.29865e-14 

-2.16152e-07 

1.31882e-06 

-7.04454e-14 

-1.31882e-06 

8.04669e-06 

4.783e-14 

-8.04669e-06 

1.22565e-10 

-1.99401e-13 

-1.22366e-10 

9.46639e-10 

-2.84604e-13 

-9.46354e-10 

5.80538e-09 

5.13537e-13 

-5.80589e-09 

3.54254e-08 

1.51007e-13 

-3.54255e-08 

2.16152e-07 

3.09279e-14 

-2.16152e-07 

1.31883e-06 

-2.22104e-14 

-1.31883e-06 

8.04669e-06 

-4.1773e-15 

-8.04669e-06 

1.22972e-10 

-1.8751e-13 

-1.22785e-10 

9.46637e-10 

-2.71474e-13 

-9.46366e-10 

5.80537e-09 

4.90167e-13 

-5.80586e-09 

3.54254e-08 

1.70717e-13 

-3.54256e-08 

2.16152e-07 

1.56605e-14 

-2.16152e-07 

1.31882e-06 

-5.46141e-14 

-1.31882e-06 

8.04669e-06 

4.29536e-14 

-8.04669e-06 

time step continuity errors : sum local = 0.00481198, global = 0, cumulative = 0
=== A(i,j) ===

-0.000131023 2.98709e-07 0 1.63784e-06 0 0 0 0 0 0 0 0 0 0 0 0 0 0 0 0 0 6.35748e-05 0 0 0 0 0 0 0 0 0 0 0 0 0 0 0 0 0 0 0 0 0 0 0 0 0 0 0 0 0 0 0 0 0 0 0 0 0 0 0 0 0 0 0 0 0 0 0 0 0 0 0 0 0 0 0 0 0 0 0 0 0 0 0 0 0 0 0 0 0 0 0 0 0 0 0 0 0 0 0 0 0 0 0 

2.98709e-07 -6.59825e-05 2.98709e-07 0 1.64303e-06 0 0 0 0 0 0 0 0 0 0 0 0 0 0 0 0 0 6.37421e-05 0 0 0 0 0 0 0 0 0 0 0 0 0 0 0 0 0 0 0 0 0 0 0 0 0 0 0 0 0 0 0 0 0 0 0 0 0 0 0 0 0 0 0 0 0 0 0 0 0 0 0 0 0 0 0 0 0 0 0 0 0 0 0 0 0 0 0 0 0 0 0 0 0 0 0 0 0 0 0 0 0 0 

0 2.98709e-07 -6.55113e-05 0 0 1.63784e-06 0 0 0 0 0 0 0 0 0 0 0 0 0 0 0 0 0 6.35748e-05 0 0 0 0 0 0 0 0 0 0 0 0 0 0 0 0 0 0 0 0 0 0 0 0 0 0 0 0 0 0 0 0 0 0 0 0 0 0 0 0 0 0 0 0 0 0 0 0 0 0 0 0 0 0 0 0 0 0 0 0 0 0 0 0 0 0 0 0 0 0 0 0 0 0 0 0 0 0 0 0 0 

1.63784e-06 0 0 -6.80908e-05 3.03898e-07 0 1.65192e-06 0 0 0 0 0 0 0 0 0 0 0 0 0 0 0 0 0 6.44971e-05 0 0 0 0 0 0 0 0 0 0 0 0 0 0 0 0 0 0 0 0 0 0 0 0 0 0 0 0 0 0 0 0 0 0 0 0 0 0 0 0 0 0 0 0 0 0 0 0 0 0 0 0 0 0 0 0 0 0 0 0 0 0 0 0 0 0 0 0 0 0 0 0 0 0 0 0 0 0 0 0 

0 1.64303e-06 0 3.03898e-07 -6.85777e-05 3.03898e-07 0 1.6572e-06 0 0 0 0 0 0 0 0 0 0 0 0 0 0 0 0 0 6.46696e-05 0 0 0 0 0 0 0 0 0 0 0 0 0 0 0 0 0 0 0 0 0 0 0 0 0 0 0 0 0 0 0 0 0 0 0 0 0 0 0 0 0 0 0 0 0 0 0 0 0 0 0 0 0 0 0 0 0 0 0 0 0 0 0 0 0 0 0 0 0 0 0 0 0 0 0 0 0 0 0 

0 0 1.63784e-06 0 3.03898e-07 -6.80908e-05 0 0 1.65192e-06 0 0 0 0 0 0 0 0 0 0 0 0 0 0 0 0 0 6.44971e-05 0 0 0 0 0 0 0 0 0 0 0 0 0 0 0 0 0 0 0 0 0 0 0 0 0 0 0 0 0 0 0 0 0 0 0 0 0 0 0 0 0 0 0 0 0 0 0 0 0 0 0 0 0 0 0 0 0 0 0 0 0 0 0 0 0 0 0 0 0 0 0 0 0 0 0 0 0 0 

0 0 0 1.65192e-06 0 0 -6.81048e-05 3.03898e-07 0 1.65192e-06 0 0 0 0 0 0 0 0 0 0 0 0 0 0 0 0 0 6.44971e-05 0 0 0 0 0 0 0 0 0 0 0 0 0 0 0 0 0 0 0 0 0 0 0 0 0 0 0 0 0 0 0 0 0 0 0 0 0 0 0 0 0 0 0 0 0 0 0 0 0 0 0 0 0 0 0 0 0 0 0 0 0 0 0 0 0 0 0 0 0 0 0 0 0 0 0 0 0 

0 0 0 0 1.6572e-06 0 3.03898e-07 -6.85918e-05 3.03898e-07 0 1.6572e-06 0 0 0 0 0 0 0 0 0 0 0 0 0 0 0 0 0 6.46696e-05 0 0 0 0 0 0 0 0 0 0 0 0 0 0 0 0 0 0 0 0 0 0 0 0 0 0 0 0 0 0 0 0 0 0 0 0 0 0 0 0 0 0 0 0 0 0 0 0 0 0 0 0 0 0 0 0 0 0 0 0 0 0 0 0 0 0 0 0 0 0 0 0 0 0 0 0 

0 0 0 0 0 1.65192e-06 0 3.03898e-07 -6.81048e-05 0 0 1.65192e-06 0 0 0 0 0 0 0 0 0 0 0 0 0 0 0 0 0 6.44971e-05 0 0 0 0 0 0 0 0 0 0 0 0 0 0 0 0 0 0 0 0 0 0 0 0 0 0 0 0 0 0 0 0 0 0 0 0 0 0 0 0 0 0 0 0 0 0 0 0 0 0 0 0 0 0 0 0 0 0 0 0 0 0 0 0 0 0 0 0 0 0 0 0 0 0 0 

0 0 0 0 0 0 1.65192e-06 0 0 -6.81048e-05 3.03898e-07 0 1.65192e-06 0 0 0 0 0 0 0 0 0 0 0 0 0 0 0 0 0 6.44971e-05 0 0 0 0 0 0 0 0 0 0 0 0 0 0 0 0 0 0 0 0 0 0 0 0 0 0 0 0 0 0 0 0 0 0 0 0 0 0 0 0 0 0 0 0 0 0 0 0 0 0 0 0 0 0 0 0 0 0 0 0 0 0 0 0 0 0 0 0 0 0 0 0 0 0 

0 0 0 0 0 0 0 1.6572e-06 0 3.03898e-07 -6.85918e-05 3.03898e-07 0 1.6572e-06 0 0 0 0 0 0 0 0 0 0 0 0 0 0 0 0 0 6.46696e-05 0 0 0 0 0 0 0 0 0 0 0 0 0 0 0 0 0 0 0 0 0 0 0 0 0 0 0 0 0 0 0 0 0 0 0 0 0 0 0 0 0 0 0 0 0 0 0 0 0 0 0 0 0 0 0 0 0 0 0 0 0 0 0 0 0 0 0 0 0 0 0 0 0 

0 0 0 0 0 0 0 0 1.65192e-06 0 3.03898e-07 -6.81048e-05 0 0 1.65192e-06 0 0 0 0 0 0 0 0 0 0 0 0 0 0 0 0 0 6.44971e-05 0 0 0 0 0 0 0 0 0 0 0 0 0 0 0 0 0 0 0 0 0 0 0 0 0 0 0 0 0 0 0 0 0 0 0 0 0 0 0 0 0 0 0 0 0 0 0 0 0 0 0 0 0 0 0 0 0 0 0 0 0 0 0 0 0 0 0 0 0 0 0 0 

0 0 0 0 0 0 0 0 0 1.65192e-06 0 0 -6.81048e-05 3.03898e-07 0 1.65192e-06 0 0 0 0 0 0 0 0 0 0 0 0 0 0 0 0 0 6.44971e-05 0 0 0 0 0 0 0 0 0 0 0 0 0 0 0 0 0 0 0 0 0 0 0 0 0 0 0 0 0 0 0 0 0 0 0 0 0 0 0 0 0 0 0 0 0 0 0 0 0 0 0 0 0 0 0 0 0 0 0 0 0 0 0 0 0 0 0 0 0 0 0 

0 0 0 0 0 0 0 0 0 0 1.6572e-06 0 3.03898e-07 -6.85918e-05 3.03898e-07 0 1.6572e-06 0 0 0 0 0 0 0 0 0 0 0 0 0 0 0 0 0 6.46696e-05 0 0 0 0 0 0 0 0 0 0 0 0 0 0 0 0 0 0 0 0 0 0 0 0 0 0 0 0 0 0 0 0 0 0 0 0 0 0 0 0 0 0 0 0 0 0 0 0 0 0 0 0 0 0 0 0 0 0 0 0 0 0 0 0 0 0 0 0 0 0 

0 0 0 0 0 0 0 0 0 0 0 1.65192e-06 0 3.03898e-07 -6.81048e-05 0 0 1.65192e-06 0 0 0 0 0 0 0 0 0 0 0 0 0 0 0 0 0 6.44971e-05 0 0 0 0 0 0 0 0 0 0 0 0 0 0 0 0 0 0 0 0 0 0 0 0 0 0 0 0 0 0 0 0 0 0 0 0 0 0 0 0 0 0 0 0 0 0 0 0 0 0 0 0 0 0 0 0 0 0 0 0 0 0 0 0 0 0 0 0 0 

0 0 0 0 0 0 0 0 0 0 0 0 1.65192e-06 0 0 -6.80908e-05 3.03898e-07 0 1.63784e-06 0 0 0 0 0 0 0 0 0 0 0 0 0 0 0 0 0 6.44971e-05 0 0 0 0 0 0 0 0 0 0 0 0 0 0 0 0 0 0 0 0 0 0 0 0 0 0 0 0 0 0 0 0 0 0 0 0 0 0 0 0 0 0 0 0 0 0 0 0 0 0 0 0 0 0 0 0 0 0 0 0 0 0 0 0 0 0 0 0 

0 0 0 0 0 0 0 0 0 0 0 0 0 1.6572e-06 0 3.03898e-07 -6.85777e-05 3.03898e-07 0 1.64303e-06 0 0 0 0 0 0 0 0 0 0 0 0 0 0 0 0 0 6.46696e-05 0 0 0 0 0 0 0 0 0 0 0 0 0 0 0 0 0 0 0 0 0 0 0 0 0 0 0 0 0 0 0 0 0 0 0 0 0 0 0 0 0 0 0 0 0 0 0 0 0 0 0 0 0 0 0 0 0 0 0 0 0 0 0 0 0 0 0 

0 0 0 0 0 0 0 0 0 0 0 0 0 0 1.65192e-06 0 3.03898e-07 -6.80908e-05 0 0 1.63784e-06 0 0 0 0 0 0 0 0 0 0 0 0 0 0 0 0 0 6.44971e-05 0 0 0 0 0 0 0 0 0 0 0 0 0 0 0 0 0 0 0 0 0 0 0 0 0 0 0 0 0 0 0 0 0 0 0 0 0 0 0 0 0 0 0 0 0 0 0 0 0 0 0 0 0 0 0 0 0 0 0 0 0 0 0 0 0 0 

0 0 0 0 0 0 0 0 0 0 0 0 0 0 0 1.63784e-06 0 0 -6.55113e-05 2.98709e-07 0 0 0 0 0 0 0 0 0 0 0 0 0 0 0 0 0 0 0 6.35748e-05 0 0 0 0 0 0 0 0 0 0 0 0 0 0 0 0 0 0 0 0 0 0 0 0 0 0 0 0 0 0 0 0 0 0 0 0 0 0 0 0 0 0 0 0 0 0 0 0 0 0 0 0 0 0 0 0 0 0 0 0 0 0 0 0 0 

0 0 0 0 0 0 0 0 0 0 0 0 0 0 0 0 1.64303e-06 0 2.98709e-07 -6.59825e-05 2.98709e-07 0 0 0 0 0 0 0 0 0 0 0 0 0 0 0 0 0 0 0 6.37421e-05 0 0 0 0 0 0 0 0 0 0 0 0 0 0 0 0 0 0 0 0 0 0 0 0 0 0 0 0 0 0 0 0 0 0 0 0 0 0 0 0 0 0 0 0 0 0 0 0 0 0 0 0 0 0 0 0 0 0 0 0 0 0 0 0 

0 0 0 0 0 0 0 0 0 0 0 0 0 0 0 0 0 1.63784e-06 0 2.98709e-07 -6.55113e-05 0 0 0 0 0 0 0 0 0 0 0 0 0 0 0 0 0 0 0 0 6.35748e-05 0 0 0 0 0 0 0 0 0 0 0 0 0 0 0 0 0 0 0 0 0 0 0 0 0 0 0 0 0 0 0 0 0 0 0 0 0 0 0 0 0 0 0 0 0 0 0 0 0 0 0 0 0 0 0 0 0 0 0 0 0 0 0 

6.35748e-05 0 0 0 0 0 0 0 0 0 0 0 0 0 0 0 0 0 0 0 0 -0.000108912 1.59632e-07 0 8.72374e-07 0 0 0 0 0 0 0 0 0 0 0 0 0 0 0 0 0 4.4305e-05 0 0 0 0 0 0 0 0 0 0 0 0 0 0 0 0 0 0 0 0 0 0 0 0 0 0 0 0 0 0 0 0 0 0 0 0 0 0 0 0 0 0 0 0 0 0 0 0 0 0 0 0 0 0 0 0 0 0 0 0 0 0 

0 6.37421e-05 0 0 0 0 0 0 0 0 0 0 0 0 0 0 0 0 0 0 0 1.59632e-07 -0.000109315 1.59632e-07 0 8.73844e-07 0 0 0 0 0 0 0 0 0 0 0 0 0 0 0 0 0 4.43794e-05 0 0 0 0 0 0 0 0 0 0 0 0 0 0 0 0 0 0 0 0 0 0 0 0 0 0 0 0 0 0 0 0 0 0 0 0 0 0 0 0 0 0 0 0 0 0 0 0 0 0 0 0 0 0 0 0 0 0 0 0 0 

0 0 6.35748e-05 0 0 0 0 0 0 0 0 0 0 0 0 0 0 0 0 0 0 0 1.59632e-07 -0.000108912 0 0 8.72374e-07 0 0 0 0 0 0 0 0 0 0 0 0 0 0 0 0 0 4.4305e-05 0 0 0 0 0 0 0 0 0 0 0 0 0 0 0 0 0 0 0 0 0 0 0 0 0 0 0 0 0 0 0 0 0 0 0 0 0 0 0 0 0 0 0 0 0 0 0 0 0 0 0 0 0 0 0 0 0 0 0 0 

0 0 0 6.44971e-05 0 0 0 0 0 0 0 0 0 0 0 0 0 0 0 0 0 8.72374e-07 0 0 -0.00011112 1.61102e-07 0 8.76369e-07 0 0 0 0 0 0 0 0 0 0 0 0 0 0 0 0 0 4.47127e-05 0 0 0 0 0 0 0 0 0 0 0 0 0 0 0 0 0 0 0 0 0 0 0 0 0 0 0 0 0 0 0 0 0 0 0 0 0 0 0 0 0 0 0 0 0 0 0 0 0 0 0 0 0 0 0 0 0 0 0 

0 0 0 0 6.46696e-05 0 0 0 0 0 0 0 0 0 0 0 0 0 0 0 0 0 8.73844e-07 0 1.61102e-07 -0.000111532 1.61102e-07 0 8.77853e-07 0 0 0 0 0 0 0 0 0 0 0 0 0 0 0 0 0 4.47884e-05 0 0 0 0 0 0 0 0 0 0 0 0 0 0 0 0 0 0 0 0 0 0 0 0 0 0 0 0 0 0 0 0 0 0 0 0 0 0 0 0 0 0 0 0 0 0 0 0 0 0 0 0 0 0 0 0 0 0 

0 0 0 0 0 6.44971e-05 0 0 0 0 0 0 0 0 0 0 0 0 0 0 0 0 0 8.72374e-07 0 1.61102e-07 -0.00011112 0 0 8.76369e-07 0 0 0 0 0 0 0 0 0 0 0 0 0 0 0 0 0 4.47127e-05 0 0 0 0 0 0 0 0 0 0 0 0 0 0 0 0 0 0 0 0 0 0 0 0 0 0 0 0 0 0 0 0 0 0 0 0 0 0 0 0 0 0 0 0 0 0 0 0 0 0 0 0 0 0 0 0 0 

0 0 0 0 0 0 6.44971e-05 0 0 0 0 0 0 0 0 0 0 0 0 0 0 0 0 0 8.76369e-07 0 0 -0.000111124 1.61102e-07 0 8.76369e-07 0 0 0 0 0 0 0 0 0 0 0 0 0 0 0 0 0 4.47127e-05 0 0 0 0 0 0 0 0 0 0 0 0 0 0 0 0 0 0 0 0 0 0 0 0 0 0 0 0 0 0 0 0 0 0 0 0 0 0 0 0 0 0 0 0 0 0 0 0 0 0 0 0 0 0 0 0 

0 0 0 0 0 0 0 6.46696e-05 0 0 0 0 0 0 0 0 0 0 0 0 0 0 0 0 0 8.77853e-07 0 1.61102e-07 -0.000111536 1.61102e-07 0 8.77853e-07 0 0 0 0 0 0 0 0 0 0 0 0 0 0 0 0 0 4.47884e-05 0 0 0 0 0 0 0 0 0 0 0 0 0 0 0 0 0 0 0 0 0 0 0 0 0 0 0 0 0 0 0 0 0 0 0 0 0 0 0 0 0 0 0 0 0 0 0 0 0 0 0 0 0 0 0 

0 0 0 0 0 0 0 0 6.44971e-05 0 0 0 0 0 0 0 0 0 0 0 0 0 0 0 0 0 8.76369e-07 0 1.61102e-07 -0.000111124 0 0 8.76369e-07 0 0 0 0 0 0 0 0 0 0 0 0 0 0 0 0 0 4.47127e-05 0 0 0 0 0 0 0 0 0 0 0 0 0 0 0 0 0 0 0 0 0 0 0 0 0 0 0 0 0 0 0 0 0 0 0 0 0 0 0 0 0 0 0 0 0 0 0 0 0 0 0 0 0 0 

0 0 0 0 0 0 0 0 0 6.44971e-05 0 0 0 0 0 0 0 0 0 0 0 0 0 0 0 0 0 8.76369e-07 0 0 -0.000111124 1.61102e-07 0 8.76369e-07 0 0 0 0 0 0 0 0 0 0 0 0 0 0 0 0 0 4.47127e-05 0 0 0 0 0 0 0 0 0 0 0 0 0 0 0 0 0 0 0 0 0 0 0 0 0 0 0 0 0 0 0 0 0 0 0 0 0 0 0 0 0 0 0 0 0 0 0 0 0 0 0 0 0 

0 0 0 0 0 0 0 0 0 0 6.46696e-05 0 0 0 0 0 0 0 0 0 0 0 0 0 0 0 0 0 8.77853e-07 0 1.61102e-07 -0.000111536 1.61102e-07 0 8.77853e-07 0 0 0 0 0 0 0 0 0 0 0 0 0 0 0 0 0 4.47884e-05 0 0 0 0 0 0 0 0 0 0 0 0 0 0 0 0 0 0 0 0 0 0 0 0 0 0 0 0 0 0 0 0 0 0 0 0 0 0 0 0 0 0 0 0 0 0 0 0 0 0 0 0 

0 0 0 0 0 0 0 0 0 0 0 6.44971e-05 0 0 0 0 0 0 0 0 0 0 0 0 0 0 0 0 0 8.76369e-07 0 1.61102e-07 -0.000111124 0 0 8.76369e-07 0 0 0 0 0 0 0 0 0 0 0 0 0 0 0 0 0 4.47127e-05 0 0 0 0 0 0 0 0 0 0 0 0 0 0 0 0 0 0 0 0 0 0 0 0 0 0 0 0 0 0 0 0 0 0 0 0 0 0 0 0 0 0 0 0 0 0 0 0 0 0 0 

0 0 0 0 0 0 0 0 0 0 0 0 6.44971e-05 0 0 0 0 0 0 0 0 0 0 0 0 0 0 0 0 0 8.76369e-07 0 0 -0.000111124 1.61102e-07 0 8.76369e-07 0 0 0 0 0 0 0 0 0 0 0 0 0 0 0 0 0 4.47127e-05 0 0 0 0 0 0 0 0 0 0 0 0 0 0 0 0 0 0 0 0 0 0 0 0 0 0 0 0 0 0 0 0 0 0 0 0 0 0 0 0 0 0 0 0 0 0 0 0 0 0 

0 0 0 0 0 0 0 0 0 0 0 0 0 6.46696e-05 0 0 0 0 0 0 0 0 0 0 0 0 0 0 0 0 0 8.77853e-07 0 1.61102e-07 -0.000111536 1.61102e-07 0 8.77853e-07 0 0 0 0 0 0 0 0 0 0 0 0 0 0 0 0 0 4.47884e-05 0 0 0 0 0 0 0 0 0 0 0 0 0 0 0 0 0 0 0 0 0 0 0 0 0 0 0 0 0 0 0 0 0 0 0 0 0 0 0 0 0 0 0 0 0 0 0 0 0 

0 0 0 0 0 0 0 0 0 0 0 0 0 0 6.44971e-05 0 0 0 0 0 0 0 0 0 0 0 0 0 0 0 0 0 8.76369e-07 0 1.61102e-07 -0.000111124 0 0 8.76369e-07 0 0 0 0 0 0 0 0 0 0 0 0 0 0 0 0 0 4.47127e-05 0 0 0 0 0 0 0 0 0 0 0 0 0 0 0 0 0 0 0 0 0 0 0 0 0 0 0 0 0 0 0 0 0 0 0 0 0 0 0 0 0 0 0 0 0 0 0 0 

0 0 0 0 0 0 0 0 0 0 0 0 0 0 0 6.44971e-05 0 0 0 0 0 0 0 0 0 0 0 0 0 0 0 0 0 8.76369e-07 0 0 -0.00011112 1.61102e-07 0 8.72374e-07 0 0 0 0 0 0 0 0 0 0 0 0 0 0 0 0 0 4.47127e-05 0 0 0 0 0 0 0 0 0 0 0 0 0 0 0 0 0 0 0 0 0 0 0 0 0 0 0 0 0 0 0 0 0 0 0 0 0 0 0 0 0 0 0 0 0 0 0 

0 0 0 0 0 0 0 0 0 0 0 0 0 0 0 0 6.46696e-05 0 0 0 0 0 0 0 0 0 0 0 0 0 0 0 0 0 8.77853e-07 0 1.61102e-07 -0.000111532 1.61102e-07 0 8.73844e-07 0 0 0 0 0 0 0 0 0 0 0 0 0 0 0 0 0 4.47884e-05 0 0 0 0 0 0 0 0 0 0 0 0 0 0 0 0 0 0 0 0 0 0 0 0 0 0 0 0 0 0 0 0 0 0 0 0 0 0 0 0 0 0 0 0 0 0 

0 0 0 0 0 0 0 0 0 0 0 0 0 0 0 0 0 6.44971e-05 0 0 0 0 0 0 0 0 0 0 0 0 0 0 0 0 0 8.76369e-07 0 1.61102e-07 -0.00011112 0 0 8.72374e-07 0 0 0 0 0 0 0 0 0 0 0 0 0 0 0 0 0 4.47127e-05 0 0 0 0 0 0 0 0 0 0 0 0 0 0 0 0 0 0 0 0 0 0 0 0 0 0 0 0 0 0 0 0 0 0 0 0 0 0 0 0 0 0 0 0 0 

0 0 0 0 0 0 0 0 0 0 0 0 0 0 0 0 0 0 6.35748e-05 0 0 0 0 0 0 0 0 0 0 0 0 0 0 0 0 0 8.72374e-07 0 0 -0.000108912 1.59632e-07 0 0 0 0 0 0 0 0 0 0 0 0 0 0 0 0 0 0 0 4.4305e-05 0 0 0 0 0 0 0 0 0 0 0 0 0 0 0 0 0 0 0 0 0 0 0 0 0 0 0 0 0 0 0 0 0 0 0 0 0 0 0 0 0 0 0 0 

0 0 0 0 0 0 0 0 0 0 0 0 0 0 0 0 0 0 0 6.37421e-05 0 0 0 0 0 0 0 0 0 0 0 0 0 0 0 0 0 8.73844e-07 0 1.59632e-07 -0.000109315 1.59632e-07 0 0 0 0 0 0 0 0 0 0 0 0 0 0 0 0 0 0 0 4.43794e-05 0 0 0 0 0 0 0 0 0 0 0 0 0 0 0 0 0 0 0 0 0 0 0 0 0 0 0 0 0 0 0 0 0 0 0 0 0 0 0 0 0 0 0 

0 0 0 0 0 0 0 0 0 0 0 0 0 0 0 0 0 0 0 0 6.35748e-05 0 0 0 0 0 0 0 0 0 0 0 0 0 0 0 0 0 8.72374e-07 0 1.59632e-07 -0.000108912 0 0 0 0 0 0 0 0 0 0 0 0 0 0 0 0 0 0 0 0 4.4305e-05 0 0 0 0 0 0 0 0 0 0 0 0 0 0 0 0 0 0 0 0 0 0 0 0 0 0 0 0 0 0 0 0 0 0 0 0 0 0 0 0 0 0 

0 0 0 0 0 0 0 0 0 0 0 0 0 0 0 0 0 0 0 0 0 4.4305e-05 0 0 0 0 0 0 0 0 0 0 0 0 0 0 0 0 0 0 0 0 -8.96421e-05 1.59632e-07 0 8.72374e-07 0 0 0 0 0 0 0 0 0 0 0 0 0 0 0 0 0 4.4305e-05 0 0 0 0 0 0 0 0 0 0 0 0 0 0 0 0 0 0 0 0 0 0 0 0 0 0 0 0 0 0 0 0 0 0 0 0 0 0 0 0 0 

0 0 0 0 0 0 0 0 0 0 0 0 0 0 0 0 0 0 0 0 0 0 4.43794e-05 0 0 0 0 0 0 0 0 0 0 0 0 0 0 0 0 0 0 0 1.59632e-07 -8.99518e-05 1.59632e-07 0 8.73844e-07 0 0 0 0 0 0 0 0 0 0 0 0 0 0 0 0 0 4.43794e-05 0 0 0 0 0 0 0 0 0 0 0 0 0 0 0 0 0 0 0 0 0 0 0 0 0 0 0 0 0 0 0 0 0 0 0 0 0 0 0 0 

0 0 0 0 0 0 0 0 0 0 0 0 0 0 0 0 0 0 0 0 0 0 0 4.4305e-05 0 0 0 0 0 0 0 0 0 0 0 0 0 0 0 0 0 0 0 1.59632e-07 -8.96421e-05 0 0 8.72374e-07 0 0 0 0 0 0 0 0 0 0 0 0 0 0 0 0 0 4.4305e-05 0 0 0 0 0 0 0 0 0 0 0 0 0 0 0 0 0 0 0 0 0 0 0 0 0 0 0 0 0 0 0 0 0 0 0 0 0 0 0 

0 0 0 0 0 0 0 0 0 0 0 0 0 0 0 0 0 0 0 0 0 0 0 0 4.47127e-05 0 0 0 0 0 0 0 0 0 0 0 0 0 0 0 0 0 8.72374e-07 0 0 -9.13353e-05 1.61102e-07 0 8.76369e-07 0 0 0 0 0 0 0 0 0 0 0 0 0 0 0 0 0 4.47127e-05 0 0 0 0 0 0 0 0 0 0 0 0 0 0 0 0 0 0 0 0 0 0 0 0 0 0 0 0 0 0 0 0 0 0 0 0 0 0 

0 0 0 0 0 0 0 0 0 0 0 0 0 0 0 0 0 0 0 0 0 0 0 0 0 4.47884e-05 0 0 0 0 0 0 0 0 0 0 0 0 0 0 0 0 0 8.73844e-07 0 1.61102e-07 -9.16507e-05 1.61102e-07 0 8.77853e-07 0 0 0 0 0 0 0 0 0 0 0 0 0 0 0 0 0 4.47884e-05 0 0 0 0 0 0 0 0 0 0 0 0 0 0 0 0 0 0 0 0 0 0 0 0 0 0 0 0 0 0 0 0 0 0 0 0 0 

0 0 0 0 0 0 0 0 0 0 0 0 0 0 0 0 0 0 0 0 0 0 0 0 0 0 4.47127e-05 0 0 0 0 0 0 0 0 0 0 0 0 0 0 0 0 0 8.72374e-07 0 1.61102e-07 -9.13353e-05 0 0 8.76369e-07 0 0 0 0 0 0 0 0 0 0 0 0 0 0 0 0 0 4.47127e-05 0 0 0 0 0 0 0 0 0 0 0 0 0 0 0 0 0 0 0 0 0 0 0 0 0 0 0 0 0 0 0 0 0 0 0 0 

0 0 0 0 0 0 0 0 0 0 0 0 0 0 0 0 0 0 0 0 0 0 0 0 0 0 0 4.47127e-05 0 0 0 0 0 0 0 0 0 0 0 0 0 0 0 0 0 8.76369e-07 0 0 -9.13393e-05 1.61102e-07 0 8.76369e-07 0 0 0 0 0 0 0 0 0 0 0 0 0 0 0 0 0 4.47127e-05 0 0 0 0 0 0 0 0 0 0 0 0 0 0 0 0 0 0 0 0 0 0 0 0 0 0 0 0 0 0 0 0 0 0 0 

0 0 0 0 0 0 0 0 0 0 0 0 0 0 0 0 0 0 0 0 0 0 0 0 0 0 0 0 4.47884e-05 0 0 0 0 0 0 0 0 0 0 0 0 0 0 0 0 0 8.77853e-07 0 1.61102e-07 -9.16547e-05 1.61102e-07 0 8.77853e-07 0 0 0 0 0 0 0 0 0 0 0 0 0 0 0 0 0 4.47884e-05 0 0 0 0 0 0 0 0 0 0 0 0 0 0 0 0 0 0 0 0 0 0 0 0 0 0 0 0 0 0 0 0 0 0 

0 0 0 0 0 0 0 0 0 0 0 0 0 0 0 0 0 0 0 0 0 0 0 0 0 0 0 0 0 4.47127e-05 0 0 0 0 0 0 0 0 0 0 0 0 0 0 0 0 0 8.76369e-07 0 1.61102e-07 -9.13393e-05 0 0 8.76369e-07 0 0 0 0 0 0 0 0 0 0 0 0 0 0 0 0 0 4.47127e-05 0 0 0 0 0 0 0 0 0 0 0 0 0 0 0 0 0 0 0 0 0 0 0 0 0 0 0 0 0 0 0 0 0 

0 0 0 0 0 0 0 0 0 0 0 0 0 0 0 0 0 0 0 0 0 0 0 0 0 0 0 0 0 0 4.47127e-05 0 0 0 0 0 0 0 0 0 0 0 0 0 0 0 0 0 8.76369e-07 0 0 -9.13393e-05 1.61102e-07 0 8.76369e-07 0 0 0 0 0 0 0 0 0 0 0 0 0 0 0 0 0 4.47127e-05 0 0 0 0 0 0 0 0 0 0 0 0 0 0 0 0 0 0 0 0 0 0 0 0 0 0 0 0 0 0 0 0 

0 0 0 0 0 0 0 0 0 0 0 0 0 0 0 0 0 0 0 0 0 0 0 0 0 0 0 0 0 0 0 4.47884e-05 0 0 0 0 0 0 0 0 0 0 0 0 0 0 0 0 0 8.77853e-07 0 1.61102e-07 -9.16547e-05 1.61102e-07 0 8.77853e-07 0 0 0 0 0 0 0 0 0 0 0 0 0 0 0 0 0 4.47884e-05 0 0 0 0 0 0 0 0 0 0 0 0 0 0 0 0 0 0 0 0 0 0 0 0 0 0 0 0 0 0 0 

0 0 0 0 0 0 0 0 0 0 0 0 0 0 0 0 0 0 0 0 0 0 0 0 0 0 0 0 0 0 0 0 4.47127e-05 0 0 0 0 0 0 0 0 0 0 0 0 0 0 0 0 0 8.76369e-07 0 1.61102e-07 -9.13393e-05 0 0 8.76369e-07 0 0 0 0 0 0 0 0 0 0 0 0 0 0 0 0 0 4.47127e-05 0 0 0 0 0 0 0 0 0 0 0 0 0 0 0 0 0 0 0 0 0 0 0 0 0 0 0 0 0 0 

0 0 0 0 0 0 0 0 0 0 0 0 0 0 0 0 0 0 0 0 0 0 0 0 0 0 0 0 0 0 0 0 0 4.47127e-05 0 0 0 0 0 0 0 0 0 0 0 0 0 0 0 0 0 8.76369e-07 0 0 -9.13393e-05 1.61102e-07 0 8.76369e-07 0 0 0 0 0 0 0 0 0 0 0 0 0 0 0 0 0 4.47127e-05 0 0 0 0 0 0 0 0 0 0 0 0 0 0 0 0 0 0 0 0 0 0 0 0 0 0 0 0 0 

0 0 0 0 0 0 0 0 0 0 0 0 0 0 0 0 0 0 0 0 0 0 0 0 0 0 0 0 0 0 0 0 0 0 4.47884e-05 0 0 0 0 0 0 0 0 0 0 0 0 0 0 0 0 0 8.77853e-07 0 1.61102e-07 -9.16547e-05 1.61102e-07 0 8.77853e-07 0 0 0 0 0 0 0 0 0 0 0 0 0 0 0 0 0 4.47884e-05 0 0 0 0 0 0 0 0 0 0 0 0 0 0 0 0 0 0 0 0 0 0 0 0 0 0 0 0 

0 0 0 0 0 0 0 0 0 0 0 0 0 0 0 0 0 0 0 0 0 0 0 0 0 0 0 0 0 0 0 0 0 0 0 4.47127e-05 0 0 0 0 0 0 0 0 0 0 0 0 0 0 0 0 0 8.76369e-07 0 1.61102e-07 -9.13393e-05 0 0 8.76369e-07 0 0 0 0 0 0 0 0 0 0 0 0 0 0 0 0 0 4.47127e-05 0 0 0 0 0 0 0 0 0 0 0 0 0 0 0 0 0 0 0 0 0 0 0 0 0 0 0 

0 0 0 0 0 0 0 0 0 0 0 0 0 0 0 0 0 0 0 0 0 0 0 0 0 0 0 0 0 0 0 0 0 0 0 0 4.47127e-05 0 0 0 0 0 0 0 0 0 0 0 0 0 0 0 0 0 8.76369e-07 0 0 -9.13353e-05 1.61102e-07 0 8.72374e-07 0 0 0 0 0 0 0 0 0 0 0 0 0 0 0 0 0 4.47127e-05 0 0 0 0 0 0 0 0 0 0 0 0 0 0 0 0 0 0 0 0 0 0 0 0 0 0 

0 0 0 0 0 0 0 0 0 0 0 0 0 0 0 0 0 0 0 0 0 0 0 0 0 0 0 0 0 0 0 0 0 0 0 0 0 4.47884e-05 0 0 0 0 0 0 0 0 0 0 0 0 0 0 0 0 0 8.77853e-07 0 1.61102e-07 -9.16507e-05 1.61102e-07 0 8.73844e-07 0 0 0 0 0 0 0 0 0 0 0 0 0 0 0 0 0 4.47884e-05 0 0 0 0 0 0 0 0 0 0 0 0 0 0 0 0 0 0 0 0 0 0 0 0 0 

0 0 0 0 0 0 0 0 0 0 0 0 0 0 0 0 0 0 0 0 0 0 0 0 0 0 0 0 0 0 0 0 0 0 0 0 0 0 4.47127e-05 0 0 0 0 0 0 0 0 0 0 0 0 0 0 0 0 0 8.76369e-07 0 1.61102e-07 -9.13353e-05 0 0 8.72374e-07 0 0 0 0 0 0 0 0 0 0 0 0 0 0 0 0 0 4.47127e-05 0 0 0 0 0 0 0 0 0 0 0 0 0 0 0 0 0 0 0 0 0 0 0 0 

0 0 0 0 0 0 0 0 0 0 0 0 0 0 0 0 0 0 0 0 0 0 0 0 0 0 0 0 0 0 0 0 0 0 0 0 0 0 0 4.4305e-05 0 0 0 0 0 0 0 0 0 0 0 0 0 0 0 0 0 8.72374e-07 0 0 -8.96421e-05 1.59632e-07 0 0 0 0 0 0 0 0 0 0 0 0 0 0 0 0 0 0 0 4.4305e-05 0 0 0 0 0 0 0 0 0 0 0 0 0 0 0 0 0 0 0 0 0 0 0 

0 0 0 0 0 0 0 0 0 0 0 0 0 0 0 0 0 0 0 0 0 0 0 0 0 0 0 0 0 0 0 0 0 0 0 0 0 0 0 0 4.43794e-05 0 0 0 0 0 0 0 0 0 0 0 0 0 0 0 0 0 8.73844e-07 0 1.59632e-07 -8.99518e-05 1.59632e-07 0 0 0 0 0 0 0 0 0 0 0 0 0 0 0 0 0 0 0 4.43794e-05 0 0 0 0 0 0 0 0 0 0 0 0 0 0 0 0 0 0 0 0 0 0 

0 0 0 0 0 0 0 0 0 0 0 0 0 0 0 0 0 0 0 0 0 0 0 0 0 0 0 0 0 0 0 0 0 0 0 0 0 0 0 0 0 4.4305e-05 0 0 0 0 0 0 0 0 0 0 0 0 0 0 0 0 0 8.72374e-07 0 1.59632e-07 -8.96421e-05 0 0 0 0 0 0 0 0 0 0 0 0 0 0 0 0 0 0 0 0 4.4305e-05 0 0 0 0 0 0 0 0 0 0 0 0 0 0 0 0 0 0 0 0 0 

0 0 0 0 0 0 0 0 0 0 0 0 0 0 0 0 0 0 0 0 0 0 0 0 0 0 0 0 0 0 0 0 0 0 0 0 0 0 0 0 0 0 4.4305e-05 0 0 0 0 0 0 0 0 0 0 0 0 0 0 0 0 0 0 0 0 -0.000108912 1.59632e-07 0 8.72374e-07 0 0 0 0 0 0 0 0 0 0 0 0 0 0 0 0 0 6.35748e-05 0 0 0 0 0 0 0 0 0 0 0 0 0 0 0 0 0 0 0 0 

0 0 0 0 0 0 0 0 0 0 0 0 0 0 0 0 0 0 0 0 0 0 0 0 0 0 0 0 0 0 0 0 0 0 0 0 0 0 0 0 0 0 0 4.43794e-05 0 0 0 0 0 0 0 0 0 0 0 0 0 0 0 0 0 0 0 1.59632e-07 -0.000109315 1.59632e-07 0 8.73844e-07 0 0 0 0 0 0 0 0 0 0 0 0 0 0 0 0 0 6.37421e-05 0 0 0 0 0 0 0 0 0 0 0 0 0 0 0 0 0 0 0 

0 0 0 0 0 0 0 0 0 0 0 0 0 0 0 0 0 0 0 0 0 0 0 0 0 0 0 0 0 0 0 0 0 0 0 0 0 0 0 0 0 0 0 0 4.4305e-05 0 0 0 0 0 0 0 0 0 0 0 0 0 0 0 0 0 0 0 1.59632e-07 -0.000108912 0 0 8.72374e-07 0 0 0 0 0 0 0 0 0 0 0 0 0 0 0 0 0 6.35748e-05 0 0 0 0 0 0 0 0 0 0 0 0 0 0 0 0 0 0 

0 0 0 0 0 0 0 0 0 0 0 0 0 0 0 0 0 0 0 0 0 0 0 0 0 0 0 0 0 0 0 0 0 0 0 0 0 0 0 0 0 0 0 0 0 4.47127e-05 0 0 0 0 0 0 0 0 0 0 0 0 0 0 0 0 0 8.72374e-07 0 0 -0.00011112 1.61102e-07 0 8.76369e-07 0 0 0 0 0 0 0 0 0 0 0 0 0 0 0 0 0 6.44971e-05 0 0 0 0 0 0 0 0 0 0 0 0 0 0 0 0 0 

0 0 0 0 0 0 0 0 0 0 0 0 0 0 0 0 0 0 0 0 0 0 0 0 0 0 0 0 0 0 0 0 0 0 0 0 0 0 0 0 0 0 0 0 0 0 4.47884e-05 0 0 0 0 0 0 0 0 0 0 0 0 0 0 0 0 0 8.73844e-07 0 1.61102e-07 -0.000111532 1.61102e-07 0 8.77853e-07 0 0 0 0 0 0 0 0 0 0 0 0 0 0 0 0 0 6.46696e-05 0 0 0 0 0 0 0 0 0 0 0 0 0 0 0 0 

0 0 0 0 0 0 0 0 0 0 0 0 0 0 0 0 0 0 0 0 0 0 0 0 0 0 0 0 0 0 0 0 0 0 0 0 0 0 0 0 0 0 0 0 0 0 0 4.47127e-05 0 0 0 0 0 0 0 0 0 0 0 0 0 0 0 0 0 8.72374e-07 0 1.61102e-07 -0.00011112 0 0 8.76369e-07 0 0 0 0 0 0 0 0 0 0 0 0 0 0 0 0 0 6.44971e-05 0 0 0 0 0 0 0 0 0 0 0 0 0 0 0 

0 0 0 0 0 0 0 0 0 0 0 0 0 0 0 0 0 0 0 0 0 0 0 0 0 0 0 0 0 0 0 0 0 0 0 0 0 0 0 0 0 0 0 0 0 0 0 0 4.47127e-05 0 0 0 0 0 0 0 0 0 0 0 0 0 0 0 0 0 8.76369e-07 0 0 -0.000111124 1.61102e-07 0 8.76369e-07 0 0 0 0 0 0 0 0 0 0 0 0 0 0 0 0 0 6.44971e-05 0 0 0 0 0 0 0 0 0 0 0 0 0 0 

0 0 0 0 0 0 0 0 0 0 0 0 0 0 0 0 0 0 0 0 0 0 0 0 0 0 0 0 0 0 0 0 0 0 0 0 0 0 0 0 0 0 0 0 0 0 0 0 0 4.47884e-05 0 0 0 0 0 0 0 0 0 0 0 0 0 0 0 0 0 8.77853e-07 0 1.61102e-07 -0.000111536 1.61102e-07 0 8.77853e-07 0 0 0 0 0 0 0 0 0 0 0 0 0 0 0 0 0 6.46696e-05 0 0 0 0 0 0 0 0 0 0 0 0 0 

0 0 0 0 0 0 0 0 0 0 0 0 0 0 0 0 0 0 0 0 0 0 0 0 0 0 0 0 0 0 0 0 0 0 0 0 0 0 0 0 0 0 0 0 0 0 0 0 0 0 4.47127e-05 0 0 0 0 0 0 0 0 0 0 0 0 0 0 0 0 0 8.76369e-07 0 1.61102e-07 -0.000111124 0 0 8.76369e-07 0 0 0 0 0 0 0 0 0 0 0 0 0 0 0 0 0 6.44971e-05 0 0 0 0 0 0 0 0 0 0 0 0 

0 0 0 0 0 0 0 0 0 0 0 0 0 0 0 0 0 0 0 0 0 0 0 0 0 0 0 0 0 0 0 0 0 0 0 0 0 0 0 0 0 0 0 0 0 0 0 0 0 0 0 4.47127e-05 0 0 0 0 0 0 0 0 0 0 0 0 0 0 0 0 0 8.76369e-07 0 0 -0.000111124 1.61102e-07 0 8.76369e-07 0 0 0 0 0 0 0 0 0 0 0 0 0 0 0 0 0 6.44971e-05 0 0 0 0 0 0 0 0 0 0 0 

0 0 0 0 0 0 0 0 0 0 0 0 0 0 0 0 0 0 0 0 0 0 0 0 0 0 0 0 0 0 0 0 0 0 0 0 0 0 0 0 0 0 0 0 0 0 0 0 0 0 0 0 4.47884e-05 0 0 0 0 0 0 0 0 0 0 0 0 0 0 0 0 0 8.77853e-07 0 1.61102e-07 -0.000111536 1.61102e-07 0 8.77853e-07 0 0 0 0 0 0 0 0 0 0 0 0 0 0 0 0 0 6.46696e-05 0 0 0 0 0 0 0 0 0 0 

0 0 0 0 0 0 0 0 0 0 0 0 0 0 0 0 0 0 0 0 0 0 0 0 0 0 0 0 0 0 0 0 0 0 0 0 0 0 0 0 0 0 0 0 0 0 0 0 0 0 0 0 0 4.47127e-05 0 0 0 0 0 0 0 0 0 0 0 0 0 0 0 0 0 8.76369e-07 0 1.61102e-07 -0.000111124 0 0 8.76369e-07 0 0 0 0 0 0 0 0 0 0 0 0 0 0 0 0 0 6.44971e-05 0 0 0 0 0 0 0 0 0 

0 0 0 0 0 0 0 0 0 0 0 0 0 0 0 0 0 0 0 0 0 0 0 0 0 0 0 0 0 0 0 0 0 0 0 0 0 0 0 0 0 0 0 0 0 0 0 0 0 0 0 0 0 0 4.47127e-05 0 0 0 0 0 0 0 0 0 0 0 0 0 0 0 0 0 8.76369e-07 0 0 -0.000111124 1.61102e-07 0 8.76369e-07 0 0 0 0 0 0 0 0 0 0 0 0 0 0 0 0 0 6.44971e-05 0 0 0 0 0 0 0 0 

0 0 0 0 0 0 0 0 0 0 0 0 0 0 0 0 0 0 0 0 0 0 0 0 0 0 0 0 0 0 0 0 0 0 0 0 0 0 0 0 0 0 0 0 0 0 0 0 0 0 0 0 0 0 0 4.47884e-05 0 0 0 0 0 0 0 0 0 0 0 0 0 0 0 0 0 8.77853e-07 0 1.61102e-07 -0.000111536 1.61102e-07 0 8.77853e-07 0 0 0 0 0 0 0 0 0 0 0 0 0 0 0 0 0 6.46696e-05 0 0 0 0 0 0 0 

0 0 0 0 0 0 0 0 0 0 0 0 0 0 0 0 0 0 0 0 0 0 0 0 0 0 0 0 0 0 0 0 0 0 0 0 0 0 0 0 0 0 0 0 0 0 0 0 0 0 0 0 0 0 0 0 4.47127e-05 0 0 0 0 0 0 0 0 0 0 0 0 0 0 0 0 0 8.76369e-07 0 1.61102e-07 -0.000111124 0 0 8.76369e-07 0 0 0 0 0 0 0 0 0 0 0 0 0 0 0 0 0 6.44971e-05 0 0 0 0 0 0 

0 0 0 0 0 0 0 0 0 0 0 0 0 0 0 0 0 0 0 0 0 0 0 0 0 0 0 0 0 0 0 0 0 0 0 0 0 0 0 0 0 0 0 0 0 0 0 0 0 0 0 0 0 0 0 0 0 4.47127e-05 0 0 0 0 0 0 0 0 0 0 0 0 0 0 0 0 0 8.76369e-07 0 0 -0.00011112 1.61102e-07 0 8.72374e-07 0 0 0 0 0 0 0 0 0 0 0 0 0 0 0 0 0 6.44971e-05 0 0 0 0 0 

0 0 0 0 0 0 0 0 0 0 0 0 0 0 0 0 0 0 0 0 0 0 0 0 0 0 0 0 0 0 0 0 0 0 0 0 0 0 0 0 0 0 0 0 0 0 0 0 0 0 0 0 0 0 0 0 0 0 4.47884e-05 0 0 0 0 0 0 0 0 0 0 0 0 0 0 0 0 0 8.77853e-07 0 1.61102e-07 -0.000111532 1.61102e-07 0 8.73844e-07 0 0 0 0 0 0 0 0 0 0 0 0 0 0 0 0 0 6.46696e-05 0 0 0 0 

0 0 0 0 0 0 0 0 0 0 0 0 0 0 0 0 0 0 0 0 0 0 0 0 0 0 0 0 0 0 0 0 0 0 0 0 0 0 0 0 0 0 0 0 0 0 0 0 0 0 0 0 0 0 0 0 0 0 0 4.47127e-05 0 0 0 0 0 0 0 0 0 0 0 0 0 0 0 0 0 8.76369e-07 0 1.61102e-07 -0.00011112 0 0 8.72374e-07 0 0 0 0 0 0 0 0 0 0 0 0 0 0 0 0 0 6.44971e-05 0 0 0 

0 0 0 0 0 0 0 0 0 0 0 0 0 0 0 0 0 0 0 0 0 0 0 0 0 0 0 0 0 0 0 0 0 0 0 0 0 0 0 0 0 0 0 0 0 0 0 0 0 0 0 0 0 0 0 0 0 0 0 0 4.4305e-05 0 0 0 0 0 0 0 0 0 0 0 0 0 0 0 0 0 8.72374e-07 0 0 -0.000108912 1.59632e-07 0 0 0 0 0 0 0 0 0 0 0 0 0 0 0 0 0 0 0 6.35748e-05 0 0 

0 0 0 0 0 0 0 0 0 0 0 0 0 0 0 0 0 0 0 0 0 0 0 0 0 0 0 0 0 0 0 0 0 0 0 0 0 0 0 0 0 0 0 0 0 0 0 0 0 0 0 0 0 0 0 0 0 0 0 0 0 4.43794e-05 0 0 0 0 0 0 0 0 0 0 0 0 0 0 0 0 0 8.73844e-07 0 1.59632e-07 -0.000109315 1.59632e-07 0 0 0 0 0 0 0 0 0 0 0 0 0 0 0 0 0 0 0 6.37421e-05 0 

0 0 0 0 0 0 0 0 0 0 0 0 0 0 0 0 0 0 0 0 0 0 0 0 0 0 0 0 0 0 0 0 0 0 0 0 0 0 0 0 0 0 0 0 0 0 0 0 0 0 0 0 0 0 0 0 0 0 0 0 0 0 4.4305e-05 0 0 0 0 0 0 0 0 0 0 0 0 0 0 0 0 0 8.72374e-07 0 1.59632e-07 -0.000108912 0 0 0 0 0 0 0 0 0 0 0 0 0 0 0 0 0 0 0 0 6.35748e-05 

0 0 0 0 0 0 0 0 0 0 0 0 0 0 0 0 0 0 0 0 0 0 0 0 0 0 0 0 0 0 0 0 0 0 0 0 0 0 0 0 0 0 0 0 0 0 0 0 0 0 0 0 0 0 0 0 0 0 0 0 0 0 0 6.35748e-05 0 0 0 0 0 0 0 0 0 0 0 0 0 0 0 0 0 0 0 0 -6.55113e-05 2.98709e-07 0 1.63784e-06 0 0 0 0 0 0 0 0 0 0 0 0 0 0 0 0 0 

0 0 0 0 0 0 0 0 0 0 0 0 0 0 0 0 0 0 0 0 0 0 0 0 0 0 0 0 0 0 0 0 0 0 0 0 0 0 0 0 0 0 0 0 0 0 0 0 0 0 0 0 0 0 0 0 0 0 0 0 0 0 0 0 6.37421e-05 0 0 0 0 0 0 0 0 0 0 0 0 0 0 0 0 0 0 0 2.98709e-07 -6.59825e-05 2.98709e-07 0 1.64303e-06 0 0 0 0 0 0 0 0 0 0 0 0 0 0 0 0 

0 0 0 0 0 0 0 0 0 0 0 0 0 0 0 0 0 0 0 0 0 0 0 0 0 0 0 0 0 0 0 0 0 0 0 0 0 0 0 0 0 0 0 0 0 0 0 0 0 0 0 0 0 0 0 0 0 0 0 0 0 0 0 0 0 6.35748e-05 0 0 0 0 0 0 0 0 0 0 0 0 0 0 0 0 0 0 0 2.98709e-07 -6.55113e-05 0 0 1.63784e-06 0 0 0 0 0 0 0 0 0 0 0 0 0 0 0 

0 0 0 0 0 0 0 0 0 0 0 0 0 0 0 0 0 0 0 0 0 0 0 0 0 0 0 0 0 0 0 0 0 0 0 0 0 0 0 0 0 0 0 0 0 0 0 0 0 0 0 0 0 0 0 0 0 0 0 0 0 0 0 0 0 0 6.44971e-05 0 0 0 0 0 0 0 0 0 0 0 0 0 0 0 0 0 1.63784e-06 0 0 -6.80908e-05 3.03898e-07 0 1.65192e-06 0 0 0 0 0 0 0 0 0 0 0 0 0 0 

0 0 0 0 0 0 0 0 0 0 0 0 0 0 0 0 0 0 0 0 0 0 0 0 0 0 0 0 0 0 0 0 0 0 0 0 0 0 0 0 0 0 0 0 0 0 0 0 0 0 0 0 0 0 0 0 0 0 0 0 0 0 0 0 0 0 0 6.46696e-05 0 0 0 0 0 0 0 0 0 0 0 0 0 0 0 0 0 1.64303e-06 0 3.03898e-07 -6.85777e-05 3.03898e-07 0 1.6572e-06 0 0 0 0 0 0 0 0 0 0 0 0 0 

0 0 0 0 0 0 0 0 0 0 0 0 0 0 0 0 0 0 0 0 0 0 0 0 0 0 0 0 0 0 0 0 0 0 0 0 0 0 0 0 0 0 0 0 0 0 0 0 0 0 0 0 0 0 0 0 0 0 0 0 0 0 0 0 0 0 0 0 6.44971e-05 0 0 0 0 0 0 0 0 0 0 0 0 0 0 0 0 0 1.63784e-06 0 3.03898e-07 -6.80908e-05 0 0 1.65192e-06 0 0 0 0 0 0 0 0 0 0 0 0 

0 0 0 0 0 0 0 0 0 0 0 0 0 0 0 0 0 0 0 0 0 0 0 0 0 0 0 0 0 0 0 0 0 0 0 0 0 0 0 0 0 0 0 0 0 0 0 0 0 0 0 0 0 0 0 0 0 0 0 0 0 0 0 0 0 0 0 0 0 6.44971e-05 0 0 0 0 0 0 0 0 0 0 0 0 0 0 0 0 0 1.65192e-06 0 0 -6.81048e-05 3.03898e-07 0 1.65192e-06 0 0 0 0 0 0 0 0 0 0 0 

0 0 0 0 0 0 0 0 0 0 0 0 0 0 0 0 0 0 0 0 0 0 0 0 0 0 0 0 0 0 0 0 0 0 0 0 0 0 0 0 0 0 0 0 0 0 0 0 0 0 0 0 0 0 0 0 0 0 0 0 0 0 0 0 0 0 0 0 0 0 6.46696e-05 0 0 0 0 0 0 0 0 0 0 0 0 0 0 0 0 0 1.6572e-06 0 3.03898e-07 -6.85918e-05 3.03898e-07 0 1.6572e-06 0 0 0 0 0 0 0 0 0 0 

0 0 0 0 0 0 0 0 0 0 0 0 0 0 0 0 0 0 0 0 0 0 0 0 0 0 0 0 0 0 0 0 0 0 0 0 0 0 0 0 0 0 0 0 0 0 0 0 0 0 0 0 0 0 0 0 0 0 0 0 0 0 0 0 0 0 0 0 0 0 0 6.44971e-05 0 0 0 0 0 0 0 0 0 0 0 0 0 0 0 0 0 1.65192e-06 0 3.03898e-07 -6.81048e-05 0 0 1.65192e-06 0 0 0 0 0 0 0 0 0 

0 0 0 0 0 0 0 0 0 0 0 0 0 0 0 0 0 0 0 0 0 0 0 0 0 0 0 0 0 0 0 0 0 0 0 0 0 0 0 0 0 0 0 0 0 0 0 0 0 0 0 0 0 0 0 0 0 0 0 0 0 0 0 0 0 0 0 0 0 0 0 0 6.44971e-05 0 0 0 0 0 0 0 0 0 0 0 0 0 0 0 0 0 1.65192e-06 0 0 -6.81048e-05 3.03898e-07 0 1.65192e-06 0 0 0 0 0 0 0 0 

0 0 0 0 0 0 0 0 0 0 0 0 0 0 0 0 0 0 0 0 0 0 0 0 0 0 0 0 0 0 0 0 0 0 0 0 0 0 0 0 0 0 0 0 0 0 0 0 0 0 0 0 0 0 0 0 0 0 0 0 0 0 0 0 0 0 0 0 0 0 0 0 0 6.46696e-05 0 0 0 0 0 0 0 0 0 0 0 0 0 0 0 0 0 1.6572e-06 0 3.03898e-07 -6.85918e-05 3.03898e-07 0 1.6572e-06 0 0 0 0 0 0 0 

0 0 0 0 0 0 0 0 0 0 0 0 0 0 0 0 0 0 0 0 0 0 0 0 0 0 0 0 0 0 0 0 0 0 0 0 0 0 0 0 0 0 0 0 0 0 0 0 0 0 0 0 0 0 0 0 0 0 0 0 0 0 0 0 0 0 0 0 0 0 0 0 0 0 6.44971e-05 0 0 0 0 0 0 0 0 0 0 0 0 0 0 0 0 0 1.65192e-06 0 3.03898e-07 -6.81048e-05 0 0 1.65192e-06 0 0 0 0 0 0 

0 0 0 0 0 0 0 0 0 0 0 0 0 0 0 0 0 0 0 0 0 0 0 0 0 0 0 0 0 0 0 0 0 0 0 0 0 0 0 0 0 0 0 0 0 0 0 0 0 0 0 0 0 0 0 0 0 0 0 0 0 0 0 0 0 0 0 0 0 0 0 0 0 0 0 6.44971e-05 0 0 0 0 0 0 0 0 0 0 0 0 0 0 0 0 0 1.65192e-06 0 0 -6.81048e-05 3.03898e-07 0 1.65192e-06 0 0 0 0 0 

0 0 0 0 0 0 0 0 0 0 0 0 0 0 0 0 0 0 0 0 0 0 0 0 0 0 0 0 0 0 0 0 0 0 0 0 0 0 0 0 0 0 0 0 0 0 0 0 0 0 0 0 0 0 0 0 0 0 0 0 0 0 0 0 0 0 0 0 0 0 0 0 0 0 0 0 6.46696e-05 0 0 0 0 0 0 0 0 0 0 0 0 0 0 0 0 0 1.6572e-06 0 3.03898e-07 -6.85918e-05 3.03898e-07 0 1.6572e-06 0 0 0 0 

0 0 0 0 0 0 0 0 0 0 0 0 0 0 0 0 0 0 0 0 0 0 0 0 0 0 0 0 0 0 0 0 0 0 0 0 0 0 0 0 0 0 0 0 0 0 0 0 0 0 0 0 0 0 0 0 0 0 0 0 0 0 0 0 0 0 0 0 0 0 0 0 0 0 0 0 0 6.44971e-05 0 0 0 0 0 0 0 0 0 0 0 0 0 0 0 0 0 1.65192e-06 0 3.03898e-07 -6.81048e-05 0 0 1.65192e-06 0 0 0 

0 0 0 0 0 0 0 0 0 0 0 0 0 0 0 0 0 0 0 0 0 0 0 0 0 0 0 0 0 0 0 0 0 0 0 0 0 0 0 0 0 0 0 0 0 0 0 0 0 0 0 0 0 0 0 0 0 0 0 0 0 0 0 0 0 0 0 0 0 0 0 0 0 0 0 0 0 0 6.44971e-05 0 0 0 0 0 0 0 0 0 0 0 0 0 0 0 0 0 1.65192e-06 0 0 -6.80908e-05 3.03898e-07 0 1.63784e-06 0 0 

0 0 0 0 0 0 0 0 0 0 0 0 0 0 0 0 0 0 0 0 0 0 0 0 0 0 0 0 0 0 0 0 0 0 0 0 0 0 0 0 0 0 0 0 0 0 0 0 0 0 0 0 0 0 0 0 0 0 0 0 0 0 0 0 0 0 0 0 0 0 0 0 0 0 0 0 0 0 0 6.46696e-05 0 0 0 0 0 0 0 0 0 0 0 0 0 0 0 0 0 1.6572e-06 0 3.03898e-07 -6.85777e-05 3.03898e-07 0 1.64303e-06 0 

0 0 0 0 0 0 0 0 0 0 0 0 0 0 0 0 0 0 0 0 0 0 0 0 0 0 0 0 0 0 0 0 0 0 0 0 0 0 0 0 0 0 0 0 0 0 0 0 0 0 0 0 0 0 0 0 0 0 0 0 0 0 0 0 0 0 0 0 0 0 0 0 0 0 0 0 0 0 0 0 6.44971e-05 0 0 0 0 0 0 0 0 0 0 0 0 0 0 0 0 0 1.65192e-06 0 3.03898e-07 -6.80908e-05 0 0 1.63784e-06 

0 0 0 0 0 0 0 0 0 0 0 0 0 0 0 0 0 0 0 0 0 0 0 0 0 0 0 0 0 0 0 0 0 0 0 0 0 0 0 0 0 0 0 0 0 0 0 0 0 0 0 0 0 0 0 0 0 0 0 0 0 0 0 0 0 0 0 0 0 0 0 0 0 0 0 0 0 0 0 0 0 6.35748e-05 0 0 0 0 0 0 0 0 0 0 0 0 0 0 0 0 0 1.63784e-06 0 0 -6.55113e-05 2.98709e-07 0 

0 0 0 0 0 0 0 0 0 0 0 0 0 0 0 0 0 0 0 0 0 0 0 0 0 0 0 0 0 0 0 0 0 0 0 0 0 0 0 0 0 0 0 0 0 0 0 0 0 0 0 0 0 0 0 0 0 0 0 0 0 0 0 0 0 0 0 0 0 0 0 0 0 0 0 0 0 0 0 0 0 0 6.37421e-05 0 0 0 0 0 0 0 0 0 0 0 0 0 0 0 0 0 1.64303e-06 0 2.98709e-07 -6.59825e-05 2.98709e-07 

0 0 0 0 0 0 0 0 0 0 0 0 0 0 0 0 0 0 0 0 0 0 0 0 0 0 0 0 0 0 0 0 0 0 0 0 0 0 0 0 0 0 0 0 0 0 0 0 0 0 0 0 0 0 0 0 0 0 0 0 0 0 0 0 0 0 0 0 0 0 0 0 0 0 0 0 0 0 0 0 0 0 0 6.35748e-05 0 0 0 0 0 0 0 0 0 0 0 0 0 0 0 0 0 1.63784e-06 0 2.98709e-07 -6.55113e-05 

=== b(i,j) ===

1.24261e-10 

-2.35439e-13 

-1.24026e-10 

9.45639e-10 

-4.40147e-13 

-9.45199e-10 

5.80351e-09 

4.53527e-13 

-5.80396e-09 

3.5427e-08 

2.83735e-13 

-3.54273e-08 

2.16153e-07 

-7.70854e-14 

-2.16153e-07 

1.31882e-06 

-5.7579e-14 

-1.31882e-06 

8.04669e-06 

6.18031e-14 

-8.04669e-06 

1.23742e-10 

-2.31293e-13 

-1.23511e-10 

9.45843e-10 

-4.15626e-13 

-9.45428e-10 

5.80388e-09 

4.82483e-13 

-5.80436e-09 

3.54267e-08 

2.73698e-13 

-3.5427e-08 

2.16153e-07 

-7.51734e-14 

-2.16153e-07 

1.31882e-06 

-6.94312e-14 

-1.31882e-06 

8.04669e-06 

4.41397e-14 

-8.04669e-06 

1.23474e-10 

-2.17926e-13 

-1.23256e-10 

9.46112e-10 

-3.66682e-13 

-9.45745e-10 

5.80439e-09 

4.8186e-13 

-5.80487e-09 

3.54262e-08 

2.22209e-13 

-3.54265e-08 

2.16152e-07 

-2.691e-14 

-2.16152e-07 

1.31882e-06 

-4.04352e-14 

-1.31882e-06 

8.04669e-06 

3.11692e-14 

-8.04669e-06 

1.23412e-10 

-1.98233e-13 

-1.23214e-10 

9.46358e-10 

-3.14276e-13 

-9.46044e-10 

5.80485e-09 

4.77243e-13 

-5.80533e-09 

3.54259e-08 

2.04856e-13 

-3.54261e-08 

2.16152e-07 

-1.63388e-14 

-2.16152e-07 

1.31882e-06 

-5.84672e-14 

-1.31882e-06 

8.04669e-06 

4.20303e-14 

-8.04669e-06 

1.23526e-10 

-1.78081e-13 

-1.23347e-10 

9.46592e-10 

-2.46612e-13 

-9.46346e-10 

5.80537e-09 

4.5271e-13 

-5.80583e-09 

3.54255e-08 

1.42408e-13 

-3.54256e-08 

2.16151e-07 

2.93837e-14 

-2.16152e-07 

1.31883e-06 

-1.86386e-14 

-1.31883e-06 

8.04669e-06 

-4.56487e-15 

-8.04669e-06 

time step continuity errors : sum local = 0.00481199, global = 0, cumulative = 0
ExecutionTime = 0.06 s  ClockTime = 0 s

End

